{"board":{"boardname":"www.eznotesinc.com","siteid":"53e8c8b8f22","forumid":"543747708","forumname":"New Patient Customizations","forumurl":"http://eznotes.forumchitchat.com/?forumum=118489","threadid":"7768739","thread":"http://eznotes.forumchitchat.com/post?id=7768739","link":"http://eznotes.forumchitchat.com/post?id=7768739#post1289649152","anchor":"post1289649152","domain":"eznotes.forumchitchat.com","topics":"Social","categories":"General Talk","crawled":"Sat, 24 Oct 2015 01:25:37 +0000","language":"English","threadstarter":1,"gmt":"0","author":{"name":"NOLOND","link":"http://eznotes.forumchitchat.com/?profile=2136317","username":"NOLOND"},"countrycode":"US","title":"29 NAPA 2013 ship design","created_at":"Fri, 23 Oct 2015 14:31:21 +0000","content":"Email me about your needs. Ctrl + F to search the program you need.\\x0D<br />\\x0D\\x0AIf you need them for test and personal use, please contact us for them: crdlink@hotmail.com\\x0D<br />\\x0D\\x0AFull cracked version, no limit, full function, no termination time.\\x0D<br />\\x0D\\x0AIf you need them for test and personal use, please contact us for them: crdlink@hotmail.com\\x0D<br />\\x0D\\x0AEmail me about your needs. Ctrl + F to search the program you need.\\x0D<br />\\x0D\\x0A\\x0D<br />\\x0D\\x0AIAR Embedded Workbench for TI MSP430 v6.2\\x0D<br />\\x0D\\x0AFARO CAM2 Measure 10\\x0D<br />\\x0D\\x0AMentor Graphics PADS vx.0 english\\x0D<br />\\x0D\\x0AGeomagic Studio V2013\\x0D<br />\\x0D\\x0ASynopsys Design Complier Syn vH-2013.03 Linux32_64\\x0D<br />\\x0D\\x0ACoventorware 2014\\x0D<br />\\x0D\\x0AMEMSplus 4.02 \\x0D<br />\\x0D\\x0Ahypermill 2014\\x0D<br />\\x0D\\x0ALSTC.LS-DYNA.v9.71.R6.1.1\\x0D<br />\\x0D\\x0AADAPT.PT.RC.2014.2 working forever\\x0D<br />\\x0D\\x0AADAPT.Builder.2012 working forever\\x0D<br />\\x0D\\x0Acnckad v11.584\\x0D<br />\\x0D\\x0AThermoflow 23\\x0D<br />\\x0D\\x0AITASCA_FLAC3D_V5.0\\x0D<br />\\x0D\\x0AITASCA_3DEC_V5.0\\x0D<br />\\x0D\\x0AITASCA UDEC v5.00\\x0D<br />\\x0D\\x0AITASCA PFC2D v4.0\\x0D<br />\\x0D\\x0AITASCA PFC3D v4.0\\x0D<br />\\x0D\\x0AKappa Ecrin v4.3\\x0D<br />\\x0D\\x0ANeotec FORGAS 10.5.5.0\\x0D<br />\\x0D\\x0Aneuralog v2014.10\\x0D<br />\\x0D\\x0AINTViewer v4.5.1\\x0D<br />\\x0D\\x0AAgilent GoldenGate 2015.01/Linux\\x0D<br />\\x0D\\x0APolar Instruments Si9000e 2014 v14.07\\x0D<br />\\x0D\\x0APolar Instruments Si8000m 2014 v14.07\\x0D<br />\\x0D\\x0AETA Inventium PreSys 2014 R1 x64\\x0D<br />\\x0D\\x0AAnadelta Tessera 2014 v3.2 x32\\x0D<br />\\x0D\\x0AFIDESTUBE 2D/3D 2014.135\\x0D<br />\\x0D\\x0AFIDES WALLS-FEM 2014.315\\x0D<br />\\x0D\\x0AFIDES Flow 2014.316\\x0D<br />\\x0D\\x0AFIDES WALLS-Dimensioning 2014.345\\x0D<br />\\x0D\\x0AFIDES SlipCircle 2014.315\\x0D<br />\\x0D\\x0AFIDES Settlement 2.5D 2014.128\\x0D<br />\\x0D\\x0AFIDES Settlement 2014.315\\x0D<br />\\x0D\\x0AFIDES PILEpro 2013.014\\x0D<br />\\x0D\\x0AFIDES GroundSlab 2013.014\\x0D<br />\\x0D\\x0AFIDES EarthPressure 2014.315\\x0D<br />\\x0D\\x0AFIDES CantileverWall 2014.315\\x0D<br />\\x0D\\x0AFIDES BearingCapacity 2014.315\\x0D<br />\\x0D\\x0AFIDES GeoStability 2014.315\\x0D<br />\\x0D\\x0AFIDES STeelCON 2014.029\\x0D<br />\\x0D\\x0AEnsoft SHAFT 2012.7.11\\x0D<br />\\x0D\\x0AFIDES WALLS-Retain 2014.315\\x0D<br />\\x0D\\x0AEnsoft TZPile 2014.3.02\\x0D<br />\\x0D\\x0AEnsoft SetOff 3.09\\x0D<br />\\x0D\\x0AEnsoft PYWall 2013.4.13\\x0D<br />\\x0D\\x0AEnsoft Group 2014.9.03\\x0D<br />\\x0D\\x0AEnsoft GeoMat 2014.2.01\\x0D<br />\\x0D\\x0AEnsoft Apile Offshore 2014.6.09\\x0D<br />\\x0D\\x0AExelis IDL 8.4 ENVI 5.2\\x0D<br />\\x0D\\x0ASARMAP SARscape 5.1.1\\x0D<br />\\x0D\\x0AEnsoft LPile 2015.8.01\\x0D<br />\\x0D\\x0ACST STUDIO SUITE 2015/Linux\\x0D<br />\\x0D\\x0AIMST EMPIRE XPU 7.0\\x0D<br />\\x0D\\x0ABentley SACS V8i SS3 05.07.00.01\\x0D<br />\\x0D\\x0ABentley LEAP Bridge Enterprise V8i SS7 14.00.00.19\\x0D<br />\\x0D\\x0AIntergraph SmartPlant Foundation 2014\\x0D<br />\\x0D\\x0AIntergraph SmartPlan Spoolgen Isometrics 2014 Full\\x0D<br />\\x0D\\x0AIntergraph SmartSketch v2014 08.00\\x0D<br />\\x0D\\x0AIntergraph PV Elite 2015 v17.0\\x0D<br />\\x0D\\x0AForsk Atoll 3.3 Build7383\\x0D<br />\\x0D\\x0AActix Analyzer 2015 v5.1.316.496 x32\\x0D<br />\\x0D\\x0ASNT EXata Developer 2.2\\x0D<br />\\x0D\\x0ASNT QualNet Developer 5.2\\x0D<br />\\x0D\\x0ABlackMagic Design Davinci Resolve 11.2 x64\\x0D<br />\\x0D\\x0AAltair HyperXtrude 2015 x64 Multilangual\\x0D<br />\\x0D\\x0AKBC Petro-SIM v4.0 SP2 build.572\\x0D<br />\\x0D\\x0ASFTC DEFORM Premier 11.0\\x0D<br />\\x0D\\x0ANeuraLog Desktop v2014.10\\x0D<br />\\x0D\\x0ANeuraView v2014.10\\x0D<br />\\x0D\\x0ANeuraSection v2014.10\\x0D<br />\\x0D\\x0ANeuralog v2014.10\\x0D<br />\\x0D\\x0ANeuraMap v2014.12\\x0D<br />\\x0D\\x0ACast wysiwyg Release 32\\x0D<br />\\x0D\\x0AGemvision Matrix 8.0 x64\\x0D<br />\\x0D\\x0ATrimble Vico Office 4.7 MR1\\x0D<br />\\x0D\\x0ASchlumberger PIPESIM 2014.1 x64\\x0D<br />\\x0D\\x0AE-on LumenRT GeoDesign 2015 x64\\x0D<br />\\x0D\\x0AE-on LumenRT Studio 2015 x64\\x0D<br />\\x0D\\x0AThunderhead PetraSim 2015.1/5.4\\x0D<br />\\x0D\\x0ADelcam ArtCAM 2012 SP2\\x0D<br />\\x0D\\x0ALARSA 4D 7.08\\x0D<br />\\x0D\\x0AChemstations ChemCAD 6.55\\x0D<br />\\x0D\\x0AThunderhead Pathfinder 2014.3\\x0D<br />\\x0D\\x0AMidland Valley Move 2015.1 x64\\x0D<br />\\x0D\\x0ANI AWR Design Environment Analyst 11.03 x64\\x0D<br />\\x0D\\x0AValentin PVSOL Premium 7.0\\x0D<br />\\x0D\\x0AInnovMetric PolyWorks 2014 IR12\\x0D<br />\\x0D\\x0AB&K PULSE Reflex Core 18.5 x64\\x0D<br />\\x0D\\x0AB&K PULSE LabShop 18.1\\x0D<br />\\x0D\\x0APetrosys 16.8\\x0D<br />\\x0D\\x0ADatakit CrossManager 2015.1\\x0D<br />\\x0D\\x0ADelcam DentCAD 2014 R4 x86/x64\\x0D<br />\\x0D\\x0AGeomagic Design X 5.0\\x0D<br />\\x0D\\x0AReallusion iClone Pro 6.0.1218.1 (x64)\\x0D<br />\\x0D\\x0ATanner Tools 16.23 x64\\x0D<br />\\x0D\\x0AESI NOVA 2014\\x0D<br />\\x0D\\x0AESI FOAM-X 2014\\x0D<br />\\x0D\\x0ASynopsys Saber 2013.12 Win&Linux\\x0D<br />\\x0D\\x0AKeil products from ARM 2014 Suite\\x0D<br />\\x0D\\x0ASimufact Welding 4.0.1\\x0D<br />\\x0D\\x0ADS SIMULIA Isight 5.9.2 Windows/Linux\\x0D<br />\\x0D\\x0ANeiWorks 2.1 SP1.0\\x0D<br />\\x0D\\x0AActix Analyzer v5.1.316.496\\x0D<br />\\x0D\\x0AAltair HyperWorks AcuSolve 13.0.301 HofFix Win64 & Linux64\\x0D<br />\\x0D\\x0AAltair.HyperWorks.Solvers.V13.0.210 Win64\\x0D<br />\\x0D\\x0AAltair.SimLab.V13.2.for.HyperWorks13.0 Win64\\x0D<br />\\x0D\\x0AAltera Quartus II v14.1 Update1 Only Win64\\x0D<br />\\x0D\\x0AAltium CircuitStudio 1.0.4 build 41208-ISO\\x0D<br />\\x0D\\x0AAnsoft HFSS Antenna Design Kit v2.15\\x0D<br />\\x0D\\x0AANSYS.ELECTROMAGNETICS.SUITE.16.0 WIN64\\x0D<br />\\x0D\\x0AANSYS.PRODUCTS.16.0.WIN64\\x0D<br />\\x0D\\x0AAnsys.Products.v16.0.Linux64-ISO 4DVD\\x0D<br />\\x0D\\x0AAquaveo Groundwater Modeling System v10.0.6 Premium Win64\\x0D<br />\\x0D\\x0AArtCAM 2012 SP2 build 359 Win32_64\\x0D<br />\\x0D\\x0AAshlar.Vellum.Graphite.v9.2.15.SP1R4\\x0D<br />\\x0D\\x0AASTRA Pro v15.0 Win32_64-ISO\\x0D<br />\\x0D\\x0AAutodesk VRED 2015 SR1 SP6 Suite 4DVD\\x0D<br />\\x0D\\x0AAVL Suite 2014.0 (Workspace Suite 2014.0 + FIRE 2014.0) Win32_64 & Linux 5DVD\\x0D<br />\\x0D\\x0ABentley MXROAD Suite V8i SS4 08.11.09.789\\x0D<br />\\x0D\\x0ABentley Rail Track V8i SS2 v08.11.07.685\\x0D<br />\\x0D\\x0ABentley.Power.InRoads.V8i.SS4.v08.11.09.788\\x0D<br />\\x0D\\x0ABentley.STAAD.Pro.V8i.SS5.v20.07.10.66\\x0D<br />\\x0D\\x0ABETA-CAE Systems v15.2.3 Win64\\x0D<br />\\x0D\\x0ABIMware.MASTER.EC2.Reinforcement.2015.v6.0.0\\x0D<br />\\x0D\\x0ABIMware.MASTER.EC3.Steel.Connections.2015.v6.0.1\\x0D<br />\\x0D\\x0ABIMware.MASTER.EC4.Composite.Slabs.2014.v3.0.2\\x0D<br />\\x0D\\x0ABIMware.MASTER.EC5.Timber.Connections.2014.v4.2.0.1\\x0D<br />\\x0D\\x0ABIMware.MASTER.EC7.Foundations.2015.v6.0.0\\x0D<br />\\x0D\\x0ACAD Schroer M4 P&ID FX v6.0.0 build 17941\\x0D<br />\\x0D\\x0ACadence.Pcell.PAS.v3.1.Linux\\x0D<br />\\x0D\\x0ACAE Datamine Studio v3.24.25.0\\x0D<br />\\x0D\\x0ACAMWorks.Nesting.2015.SP0.0.Win64.for.SW2015\\x0D<br />\\x0D\\x0ACedrat Flux v12.0\\x0D<br />\\x0D\\x0ACGS.Infrastructure.Solutions.2015.v2.0.164.build.252.for.AutoCAD.Win64\\x0D<br />\\x0D\\x0AChemstations.CHEMCAD.Suite.v6.5.6.7502\\x0D<br />\\x0D\\x0AClark.Labs.TerrSet.v18.00\\x0D<br />\\x0D\\x0AConSteel.v8.0.Win32\\x0D<br />\\x0D\\x0ACorelCAD.2015.v15.0.1.22.Win64\\x0D<br />\\x0D\\x0ACSI ETABS 2015 v15.0.0.1221 Win32_64\\x0D<br />\\x0D\\x0ACsJoint.v8.0.Win32\\x0D<br />\\x0D\\x0AData East SXFTools v2.4 for ArcGIS Desktop\\x0D<br />\\x0D\\x0AData East Tab Reader v4.4 for ArcGIS Desktop\\x0D<br />\\x0D\\x0ADelcam Crispin PatternCut 2014 R2 SP2\\x0D<br />\\x0D\\x0ADelcam Crispin ShoeCost 2015 R1 SP1\\x0D<br />\\x0D\\x0ADelcam Crispin ShoeMaker 2015 R2 Win32_64\\x0D<br />\\x0D\\x0ADelcam DentCAD 2015 R1 Win32_64\\x0D<br />\\x0D\\x0ADelcam.PowerINSPECT.V2015\\x0D<br />\\x0D\\x0ADIgSILENT PowerFactory v15.1.7 Win32\\x0D<br />\\x0D\\x0AElysium_CADdoctor_EX_6.1\\x0D<br />\\x0D\\x0AESAComp.V3.5.008\\x0D<br />\\x0D\\x0AESI.Visual.Environment.V10.0\\x0D<br />\\x0D\\x0AEsko DeskPack & Studio 14-ISO\\x0D<br />\\x0D\\x0AEsko.Software.Studio.Visualizer.12.0.16\\x0D<br />\\x0D\\x0AFloriani Total Control Commercial v7.25.0.1 Multilingual\\x0D<br />\\x0D\\x0AFTI FastBlank 2014 for ProE WildFire 5 - Creo v3.0 Win32_64\\x0D<br />\\x0D\\x0AGeoMagic.Design.Direct.v2014.Win64-ISO\\x0D<br />\\x0D\\x0AGEOMAGIC.DESIGN.X.V5.1.WIN64\\x0D<br />\\x0D\\x0AGEOMAGIC.FOUNDATION.V2014.3.WIN64\\x0D<br />\\x0D\\x0AGEOMAGIC.FREEFORM.PLUS.V2014.3.WIN64\\x0D<br />\\x0D\\x0AGEOMAGIC.Verify.V5.1.WIN64\\x0D<br />\\x0D\\x0AGeometryWorks.3D.Features.V15.0.for.SolidWorks2015\\x0D<br />\\x0D\\x0AGeostru G.M.S. 2015.7.1.148\\x0D<br />\\x0D\\x0AGeostru MP 2015.16.2.476\\x0D<br />\\x0D\\x0AGeostru Slope 2015 v25.5.1204\\x0D<br />\\x0D\\x0AGeostru SPW 2015.30.3.592\\x0D<br />\\x0D\\x0AGlobal.Mapper.v16.1.2.b021915.Win32_64\\x0D<br />\\x0D\\x0AHDL.Desing.Entry.EASE.v8.2.R1.for.Windows\\x0D<br />\\x0D\\x0AHEADS Pro Release 14.1 Win8\\x0D<br />\\x0D\\x0AHEADS Rail Release 14.1\\x0D<br />\\x0D\\x0AHEADS Site Release 14.1\\x0D<br />\\x0D\\x0AHEEDS.MDO.2014.07.Win64 & Linux64\\x0D<br />\\x0D\\x0AHVAC.Solution.Pro.v7.5.1\\x0D<br />\\x0D\\x0AInfolytica.Products(ElecNet7.5,MagNet7.5,MotorSolve4.1.1,\\x0D<br />\\x0D\\x0AOptiNet7.5,ThermNet7.5,MagNet.Plug-In.for.PSIM1.3.2,\\x0D<br />\\x0D\\x0AActuator.Plug-In.for.Simulink2.2.2,MagNet.Plug-In.for.Simulink2.2.2,\\x0D<br />\\x0D\\x0AMotorSolve.Plug-In.for.Simulink2.2,\\x0D<br />\\x0D\\x0AThree.Phase.Machine.Plug-In.for.Simulink2.2.2,SPEED.PC-BDC.Importer.2.5)\\x0D<br />\\x0D\\x0AIntegrated Production Modelling Tookit(IPM) v9.0\\x0D<br />\\x0D\\x0AIntergraph CAESAR II 2014 SP1 v7.00.01.1600 Build 141003 Update Only\\x0D<br />\\x0D\\x0AIntergraph ERDAS Foundation/IMAGINE/ER Mapper 2014 v14.0 3DVD\\x0D<br />\\x0D\\x0AIntergraph.SmartPlan.Spoolgen.Isometrics.2014\\x0D<br />\\x0D\\x0AITI.TRANSCENDATA.CADFIX.V10\\x0D<br />\\x0D\\x0AJMAG-Designer.V14.0.01t X64\\x0D<br />\\x0D\\x0AKBC Infochem Multiflash v6.0.09\\x0D<br />\\x0D\\x0AKBC.PetroSIM.v5.0.SP1.1046.&.Infochem.Multiflash.v4.3.14\\x0D<br />\\x0D\\x0AKeil MDK-ARM v5.14\\x0D<br />\\x0D\\x0AKML2KML 3.0.20 build 06.21.12 for ArcGIS 10.x\\x0D<br />\\x0D\\x0ALandmark.GeoGraphix.Discovery.v2013.0\\x0D<br />\\x0D\\x0ALizardTech.GeoExpress.v9.0.1.3818.Win32_64\\x0D<br />\\x0D\\x0ALogopress3 2015 SP0.3.1 for SolidWorks 2013-2015 Win64\\x0D<br />\\x0D\\x0ALuxion.Keyshot.v5.2.10.Win32_64\\x0D<br />\\x0D\\x0AM4 P&ID FX v6.0\\x0D<br />\\x0D\\x0AMaplesoft MapleSim v7.01 Win32_64\\x0D<br />\\x0D\\x0AMasterCAM.X8.for.SolidWorks.HotFix.4.v17.0.19750.10\\x0D<br />\\x0D\\x0AMasterCAM.X8.HotFix.4.v17.0.19735.0\\x0D<br />\\x0D\\x0AMaterialise Magics v19.01 Win32_64\\x0D<br />\\x0D\\x0AMentor Graphics EE 7.9.5 Update 23 Win32_64\\x0D<br />\\x0D\\x0AMentor Graphics Expedition X-ENTP VX.1 Win32_64\\x0D<br />\\x0D\\x0AMentor Graphics FloTHERM XT v2.0 Win64\\x0D<br />\\x0D\\x0AMentor Graphics PADS 9.5 Update 2 Win32_64\\x0D<br />\\x0D\\x0AMotorSolve v4.11 & MagNet v7.5 & ThermNet v7.5 & ElecNet v7.5 & OptiNet v7.5 5CD\\x0D<br />\\x0D\\x0AMSC.MARC.V2014.WIN64\\x0D<br />\\x0D\\x0AMSC.NASTRAN.V2014.WIN64\\x0D<br />\\x0D\\x0AMSC.PASTRAN.V2014.WIN64\\x0D<br />\\x0D\\x0AMSC.SINDA.V2014.WIN64\\x0D<br />\\x0D\\x0AOPNET Modeler 17.5 PL5 Windows 3CD\\x0D<br />\\x0D\\x0AOriginLab OriginPro 2015 SR1 version b9.2.257\\x0D<br />\\x0D\\x0ApfCAD Catasto v 18.00\\x0D<br />\\x0D\\x0APixologic.Zbrush.v4R7.Windows\\x0D<br />\\x0D\\x0APlanit.Fusion.v12-ISO\\x0D<br />\\x0D\\x0APlexim.Plecs.Standalone.v3.6.4\\x0D<br />\\x0D\\x0APointWise v17.3 R1 for Win32_64 & Linux32_64 & MacOSX 5CD\\x0D<br />\\x0D\\x0APolar Speedstack 2009 v10.01\\x0D<br />\\x0D\\x0APowerShape.2015.R1.SP4.Update.Only\\x0D<br />\\x0D\\x0APro-face GP-Pro EX v4.03\\x0D<br />\\x0D\\x0AProfili.v2.30b\\x0D<br />\\x0D\\x0APSCAD v4.25 Win32\\x0D<br />\\x0D\\x0APTC Creo Illustrate 3.0 M030 Multilanguage Win32_64\\x0D<br />\\x0D\\x0APVElite.2015\\x0D<br />\\x0D\\x0AR&B ElectrodeWorks 2014 SP0 for SolidWorks 2012-2015 Win64\\x0D<br />\\x0D\\x0ASafe.Software.FME.Desktop.v2015.0.15253.Win32_64\\x0D<br />\\x0D\\x0ASafe.Software.FME.Server.v2015.0.15253.Win32_64\\x0D<br />\\x0D\\x0ASchlumberger.PIPESIM.V2013.1.build.899.129 x64\\x0D<br />\\x0D\\x0ASchlumberger.Visual.MODFLOW.Pro.Classic.Interface.v4.6.0.166\\x0D<br />\\x0D\\x0ASchneider Electric (ex. Invensys) SimSci PRO II v9.3\\x0D<br />\\x0D\\x0ASiemens SolidEdge ST7 MP04 Update Only\\x0D<br />\\x0D\\x0ASiemens Totally Integrated Automation (TIA) Portal version 13 SP1 Win32_64\\x0D<br />\\x0D\\x0ASiemens.NX.Nastran.V10.0 Win64\\x0D<br />\\x0D\\x0ASiemens.NX.v10.0.0.MP01.Update.Only.Win64\\x0D<br />\\x0D\\x0ASiemens.PLM.NX.v10.0.1 (NX 10.0 MR1) Update Only Win64\\x0D<br />\\x0D\\x0ASiemens.Tecnomatix.Jack.v8.2.Win64\\x0D<br />\\x0D\\x0ASimufact Welding 4.0.2 Solvers only Linux64\\x0D<br />\\x0D\\x0ASolidCAM 2015 SP1 for SolidWorks 2012-2015 Multilanguage Win32_64\\x0D<br />\\x0D\\x0AsolidThinking.Suite(Evolve + Inspire).V2014.3969\\x0D<br />\\x0D\\x0ASolidWorks 2015 SP2.0 Full Multilanguage Integrated-ISO\\x0D<br />\\x0D\\x0ASolidWorks Electrical(elecworks) 2013\\x0D<br />\\x0D\\x0ASolidWorks Enterprise PDM 2015 SP2.0 Multilanguage Win32_64\\x0D<br />\\x0D\\x0ASPACECLAIM.V2015\\x0D<br />\\x0D\\x0ASPI SheetMetalWorks 2015 for SolidWorks 2015 Win64\\x0D<br />\\x0D\\x0ASTAR-CCM+ v10.02.010.Win64.&.Linux64\\x0D<br />\\x0D\\x0ASuperOverlay 3.0.6 build 06.10.11 for ArcGIS 10.x\\x0D<br />\\x0D\\x0ASynaptiCAD.Product.Suite.v19.00h\\x0D<br />\\x0D\\x0ASynopsys Pycell Studio 2014.09 Windows\\x0D<br />\\x0D\\x0ASystem Configurator (SyCon) Hilscher v2.9 Schneider Electric Win32-ISO\\x0D<br />\\x0D\\x0ATechsoft.ASTRA.Pro.v15.0.Win32_64\\x0D<br />\\x0D\\x0ATecplot.360.EX.2015.R1.v15.1.0.57526\\x0D<br />\\x0D\\x0ATecplot.Chorus.2015.R1.v3.2.0.57956\\x0D<br />\\x0D\\x0ATecplot.RS.2014.R2.v2014.2.1.57592\\x0D<br />\\x0D\\x0ATerrasolid.apps.v15.for.Microstation.V8i.and.for.Windows.platforms\\x0D<br />\\x0D\\x0ATHE.Foundry.Colorway.v1.2V1.Windows\\x0D<br />\\x0D\\x0AThe.Foundry.Mischief.v2.0.4\\x0D<br />\\x0D\\x0AThe.Foundry.Nukestudio.v9.0V4.Win64\\x0D<br />\\x0D\\x0AThunderhead.Engineering.Pathfinder.v2014.3.1208.Win32_64\\x0D<br />\\x0D\\x0AThunderhead.Engineering.PetraSim.v2015.1.0122\\x0D<br />\\x0D\\x0AThunderhead.Engineering.PyroSim.v2015.1.0129.Win64\\x0D<br />\\x0D\\x0ATrimble eCognition Developer v9.02 build 2653\\x0D<br />\\x0D\\x0AVentyx MineScape v5.7\\x0D<br />\\x0D\\x0AWILCOM EmbroideryStudio E2.0Z WinALL\\x0D<br />\\x0D\\x0AWinSim-DESIGN II v14.01d\\x0D<br />\\x0D\\x0AWOLFRAM.RESEARCH.MATHEMATICA.V10.0.2\\x0D<br />\\x0D\\x0Abasinmod 2012\\x0D<br />\\x0D\\x0Acgg geovation 2013\\x0D<br />\\x0D\\x0ACMG 2014.10\\x0D<br />\\x0D\\x0ACRYSTAL 2014.1\\x0D<br />\\x0D\\x0ACycloLog\\x0D<br />\\x0D\\x0ADrilling Office 2.6.1120.0\\x0D<br />\\x0D\\x0ADrillnet 2.0.3.14\\x0D<br />\\x0D\\x0AEarthModel FT 4.4\\x0D<br />\\x0D\\x0AEcrin 4.30\\x0D<br />\\x0D\\x0AEPoffice EPS+\\x0D<br />\\x0D\\x0AEPoffice FRS+\\x0D<br />\\x0D\\x0AEPoffice GeoTalk\\x0D<br />\\x0D\\x0AEPoffice image+\\x0D<br />\\x0D\\x0AEps PanSystem V2014\\x0D<br />\\x0D\\x0AE-stimplan\\x0D<br />\\x0D\\x0AFaultX\\x0D<br />\\x0D\\x0AFracproPT 2013\\x0D<br />\\x0D\\x0AGeoEast 2.6.3\\x0D<br />\\x0D\\x0Ageoframe 4.5 2012\\x0D<br />\\x0D\\x0AGeoGraphix discovery 2013\\x0D<br />\\x0D\\x0AGeoModeling VisualVoxat (VVA) AttributeStudio v7.4(20140410)\\x0D<br />\\x0D\\x0AGeoTeric 2013.1\\x0D<br />\\x0D\\x0AGeoTeric 3D v2013.5.2\\x0D<br />\\x0D\\x0AGeoThrust 3.0\\x0D<br />\\x0D\\x0AGMI\\x0D<br />\\x0D\\x0AGMSeis 3.2\\x0D<br />\\x0D\\x0AGOHFER 8.2.3\\x0D<br />\\x0D\\x0AGRISYS\\x0D<br />\\x0D\\x0AHampson-Russell HRS 9.2.1 (Geoview linux)\\x0D<br />\\x0D\\x0AIHS PETRA 4.0.11\\x0D<br />\\x0D\\x0AiMOSS 3.2\\x0D<br />\\x0D\\x0Ajason 8.4.2\\x0D<br />\\x0D\\x0AJewelSuite 2014\\x0D<br />\\x0D\\x0AJewelSuite Subsurface Modeling 2014\\x0D<br />\\x0D\\x0AKingdom SMT 2015.0 x64\\x0D<br />\\x0D\\x0AKLseis II\\x0D<br />\\x0D\\x0ALandmark Engineer?? Desktop(EDT) R5000.1 \\x0D<br />\\x0D\\x0Alandmark openworks 5000.8.3 linux64\\x0D<br />\\x0D\\x0ALESA 9.7\\x0D<br />\\x0D\\x0AMETALINK\\x0D<br />\\x0D\\x0AMeyer 2012.1\\x0D<br />\\x0D\\x0Amove 2015.1\\x0D<br />\\x0D\\x0ANorSar 5.5.3\\x0D<br />\\x0D\\x0Aomega desktop 2014.1 3DVD\\x0D<br />\\x0D\\x0AOMNI 3D 2013\\x0D<br />\\x0D\\x0APaleoScan 1.5\\x0D<br />\\x0D\\x0AParadigm Echos (FOCUS) 14\\x0D<br />\\x0D\\x0AParadigm Epos 4.1\\x0D<br />\\x0D\\x0AParadigm Geolog 2011.3 v7.1\\x0D<br />\\x0D\\x0Apetrel 2014.2\\x0D<br />\\x0D\\x0APetroMod 2014\\x0D<br />\\x0D\\x0APowerlog 3.4.5\\x0D<br />\\x0D\\x0Apromax 5000.8\\x0D<br />\\x0D\\x0ARecon\\x0D<br />\\x0D\\x0ARMS 2013\\x0D<br />\\x0D\\x0ARokDoc 6.10\\x0D<br />\\x0D\\x0ARoxar Emerson TEMPEST 7.0.3\\x0D<br />\\x0D\\x0ASchlumberger ECLIPSE 2014.1\\x0D<br />\\x0D\\x0ASchlumberger.FracCADE\\x0D<br />\\x0D\\x0ASchlumberger.SandCADE\\x0D<br />\\x0D\\x0ASeismic Studio\\x0D<br />\\x0D\\x0ASeisUP 2014\\x0D<br />\\x0D\\x0ASeisWare 8.00.05\\x0D<br />\\x0D\\x0ASPT GROUP DrillBench 6.0\\x0D<br />\\x0D\\x0AStimpro 2013\\x0D<br />\\x0D\\x0Asysdrill 2012.1\\x0D<br />\\x0D\\x0ATechlog 2014.2\\x0D<br />\\x0D\\x0Atesseral 2D v7.2.7\\x0D<br />\\x0D\\x0Atesseral pro v4.15\\x0D<br />\\x0D\\x0AtNavigator 3.3.3\\x0D<br />\\x0D\\x0AToModel 6.5\\x0D<br />\\x0D\\x0ATomoPlus 5.4\\x0D<br />\\x0D\\x0Atransform\\x0D<br />\\x0D\\x0AVISTA 2D-3D Seismic Processing 2013\\x0D<br />\\x0D\\x0AMentor.Graphics.DxDesigner.Expedition.Enterprise.2007.1\\x0D<br />\\x0D\\x0AMentor.Graphics.Edif200.Schematic.Interface.V2002.Spac2 \\x0D<br />\\x0D\\x0AMentor.Graphics.EN.2004.Spac4 \\x0D<br />\\x0D\\x0AMentor.Graphics.ePD.2004.Spac2 \\x0D<br />\\x0D\\x0AMentor.Graphics.eProduct.Designer.3.1 \\x0D<br />\\x0D\\x0Amentor.graphics.eproduct.designer2004.3CD \\x0D<br />\\x0D\\x0AMentor.Graphics.Exemplar.Leonardo.Spectrum.v2002a \\x0D<br />\\x0D\\x0AMentor.Graphics.EXP.V2005.Linux \\x0D<br />\\x0D\\x0AMentor.Graphics.Expedition.2005.SP3.&.Capture.16.0 \\x0D<br />\\x0D\\x0AMentor.Graphics.Expedition.Enterprise.Flow(EE).v7.9.5.Win32 \\x0D<br />\\x0D\\x0AMentor.Graphics.FloEFD.v13.0.2518.for.Creo.NX.CATIA.Win64 \\x0D<br />\\x0D\\x0AMentor.Graphics.FloPCB.v6.1 \\x0D<br />\\x0D\\x0AMentor.Graphics.FloTHERM.v10.0.Windows.linux \\x0D<br />\\x0D\\x0AMentor.Graphics.FloTHERM.XT.v1.1.Win64 \\x0D<br />\\x0D\\x0AMentor.Graphics.FlothermPCB.v7.0 \\x0D<br />\\x0D\\x0AMentor.Graphics.FloVENT.v9.3.Win \\x0D<br />\\x0D\\x0AMentor.Graphics.Flowmaster.v7.9.1 \\x0D<br />\\x0D\\x0AMentor.Graphics.FormalPro.v2011.2.0.Linux \\x0D<br />\\x0D\\x0AMentor.Graphics.FPGA.ADVANTAGE.FOR.HDL.DESIGN.V5.4 \\x0D<br />\\x0D\\x0AMentor.Graphics.FPGA.Advantage.v8.2 \\x0D<br />\\x0D\\x0AMentor.Graphics.HDL.Designer.2012.1.x86 \\x0D<br />\\x0D\\x0Amentor.graphics.hdl.designer.series.v2013.1.win \\x0D<br />\\x0D\\x0AMentor.Graphics.HDS.v2013.1.Windows.&.Linux \\x0D<br />\\x0D\\x0AMentor.Graphics.HyperLynx.v9.0.1.Win32.64.&.Linux32.64 \\x0D<br />\\x0D\\x0AMentor.Graphics.IC.Flow.v2008.2a.Linux \\x0D<br />\\x0D\\x0AMentor.Graphics.ICX.TAU.2004.SPac4 \\x0D<br />\\x0D\\x0AMENTOR.GRAPHICS.IE3D.V15 \\x0D<br />\\x0D\\x0AMentor.Graphics.IND.v2006 \\x0D<br />\\x0D\\x0AMentor.Graphics.Integrated.Systems.Design.2004.Spac2.3CD \\x0D<br />\\x0D\\x0AMentor.Graphics.IO.Designer.v7.4 \\x0D<br />\\x0D\\x0AMentor.Graphics.ISD.2004.Spac4 \\x0D<br />\\x0D\\x0AMentor.Graphics.Leonardo.Spectrum.v2012b.Win32 \\x0D<br />\\x0D\\x0AMentor.Graphics.Libraray.Manager.V2002.SPac2 \\x0D<br />\\x0D\\x0AMentor.Graphics.LP.Wizard.v10.5.Win32 \\x0D<br />\\x0D\\x0AMentor.Graphics.ModelSIM.SE.v10.2c.Win32.64.linux \\x0D<br />\\x0D\\x0AMentor.Graphics.Nucleus.SIM.v4.3 \\x0D<br />\\x0D\\x0AMentor.Graphics.O-in.v3.0.Linux \\x0D<br />\\x0D\\x0AMentor.Graphics.Olympus-SoC.v2009.04.R3.Linux \\x0D<br />\\x0D\\x0AMENTOR.GRAPHICS.PADS.v9.5 \\x0D<br />\\x0D\\x0AMentor.Graphics.PowerLogic.v5.0.Build.113 \\x0D<br />\\x0D\\x0AMentor.Graphics.PowerPCB.and.BlazeRouter.5.0 \\x0D<br />\\x0D\\x0AMentor.Graphics.PowerPCB.v5.0.1.Build.037 \\x0D<br />\\x0D\\x0AMentor.Graphics.Precision.RTL.2013b.Win32.64 \\x0D<br />\\x0D\\x0AMentor.Graphics.Precision.Synthesis.v2012.Win32 \\x0D<br />\\x0D\\x0AMENTOR.GRAPHICS.PS2004C.build45 \\x0D<br />\\x0D\\x0AMentor.Graphics.QE.2004.Spac2 \\x0D<br />\\x0D\\x0AMentor.Graphics.Questa.Formal.v10.1c.Linux \\x0D<br />\\x0D\\x0AMentor.Graphics.Questasim.v10.2b.Windows.Linux \\x0D<br />\\x0D\\x0AMentor.Graphics.Renoir.99.5 \\x0D<br />\\x0D\\x0AMentor.Graphics.SDD.2004.SPac3 \\x0D<br />\\x0D\\x0AMentor.Graphics.Seamless.CVE.v5.4.Linux \\x0D<br />\\x0D\\x0AMentor.Graphics.Seamless.FPGA.v5.4.3.0 \\x0D<br />\\x0D\\x0AMentor.Graphics.Sourcery.CodeBench.For.ARM.EABI.2011.09.Linux \\x0D<br />\\x0D\\x0AMentor.Graphics.Sourcery.CodeBench.For.ARM.GNU.LINUX.2011.09.Linux \\x0D<br />\\x0D\\x0Amentor.graphics.sourcery.codebench.for.coldfire.2012.09.win \\x0D<br />\\x0D\\x0Amentor.graphics.sourcery.codebench.for.mips.2013.05.win \\x0D<br />\\x0D\\x0AMentor.Graphics.Sourcery.CodeBench.IDE.2011.03.Win \\x0D<br />\\x0D\\x0AMentor.Graphics.SystemVision.2010.v5.7 \\x0D<br />\\x0D\\x0AMentor.Graphics.Tessent.2013.1.Linux \\x0D<br />\\x0D\\x0AMentor.Graphics.Variant.Manager.V2002.2r2 \\x0D<br />\\x0D\\x0AMentor.Graphics.VeriBest.v2000 \\x0D<br />\\x0D\\x0AMentor.Graphics.VeSys.v2.0.2009.0b \\x0D<br />\\x0D\\x0AMentor.Graphics.VHDL.CHIPSIM.AND.SYSSIM.V2000.0A \\x0D<br />\\x0D\\x0AMentor.Graphics.Vista.v3.5.Linux \\x0D<br />\\x0D\\x0AMentor.Graphics.Visual.Elite.2012.v4.4.Win&Linux \\x0D<br />\\x0D\\x0AMentor.Graphics.WG.2004.Spac2 \\x0D<br />\\x0D\\x0AMentor.HDL.Designer.Series.2010.2a.Linux \\x0D<br />\\x0D\\x0AMentor.IO.Designer.7.4 \\x0D<br />\\x0D\\x0AMentor.ModelSim.SE.v10.1c \\x0D<br />\\x0D\\x0AMentor.Precision.Synthesis.v2009a.87 \\x0D<br />\\x0D\\x0AMentor.Veribest2000 \\x0D<br />\\x0D\\x0AMentorGraphics.FloEFD.13.0.2518.Creo.NX.CATIA.Win64 \\x0D<br />\\x0D\\x0AMentorGraphics.FloTHERM.10.0 \\x0D<br />\\x0D\\x0Amentorkg.6.3 \\x0D<br />\\x0D\\x0AMEPO.v3.2.4 \\x0D<br />\\x0D\\x0AMerak.Peep.2007.1 \\x0D<br />\\x0D\\x0AMerck.Index.13th.Edition.v13.1 \\x0D<br />\\x0D\\x0AMerco.PCB.Elegance.v2.5 \\x0D<br />\\x0D\\x0AMercury.CSD.v2.4.Build.RC5 \\x0D<br />\\x0D\\x0AMercury.Interactive.-.Quicktest.Pro.v6.5.Iso \\x0D<br />\\x0D\\x0AMERCURY.INTERACTIVE.SITESCOPE.V8.0 \\x0D<br />\\x0D\\x0AMERCURY.LOADRUNNER.V8.1 \\x0D<br />\\x0D\\x0AMercury.QuickTest.Pro.10 \\x0D<br />\\x0D\\x0AMERCURY.RESOLVERT.V4.0 \\x0D<br />\\x0D\\x0AMercury.TGS.Amira.v4.1 \\x0D<br />\\x0D\\x0AMercury.VSG.Open.Inventor.v8.0.2.for.Visual.Studio.2008 \\x0D<br />\\x0D\\x0AMERCURY.WINRUNNER.V8.2 \\x0D<br />\\x0D\\x0AMerge.eFilm.Workstation.v2.1.2 \\x0D<br />\\x0D\\x0AMerk.index.14 \\x0D<br />\\x0D\\x0AMerrick.MARS.Explorer.v7.1.7112.Win64 \\x0D<br />\\x0D\\x0AMerrick.MARS.v7.0 \\x0D<br />\\x0D\\x0AMesaExpert.v12.0.Win32 \\x0D<br />\\x0D\\x0AMeshpilot.v1.0 \\x0D<br />\\x0D\\x0AMeshWorks.v6.1.R2.Win32.64 \\x0D<br />\\x0D\\x0AMessiah.Animate.v4.0e \\x0D<br />\\x0D\\x0AMessiah.Studio.v2.0B \\x0D<br />\\x0D\\x0AMestREC.v4.9.9.9 \\x0D<br />\\x0D\\x0AMestrelab.Mnova.Suite.v6.0.2 \\x0D<br />\\x0D\\x0AMestRES.v1.12 \\x0D<br />\\x0D\\x0AMeta.Cut.Utilities.V3.0 \\x0D<br />\\x0D\\x0AMETA.POST.V3.3.1 \\x0D<br />\\x0D\\x0AMetacomp.CFD++.v11.1.Win32 \\x0D<br />\\x0D\\x0AMetaCut.3.08 \\x0D<br />\\x0D\\x0AMetaCut.Utilities.v3.0 \\x0D<br />\\x0D\\x0AMETALIX.cnckad.v10.498.for.win7.x32.x64.full \\x0D<br />\\x0D\\x0AMETALIX.cnckad.v10.498.x32.x64.full \\x0D<br />\\x0D\\x0AMetalMaster.from.NOVACAST \\x0D<br />\\x0D\\x0AMetapod.PCB.v2.4 \\x0D<br />\\x0D\\x0AMetaProducts.Offline.Explorer.Enterprise.v6.3 \\x0D<br />\\x0D\\x0AMetaWare.Arm.v4.5A..Working \\x0D<br />\\x0D\\x0AMeteonorm.v7.0.14 \\x0D<br />\\x0D\\x0AMeteware.for.ARM.4.5a \\x0D<br />\\x0D\\x0Ametrowerks.codewarrior.9.0 \\x0D<br />\\x0D\\x0AMetrowerks.CodeWarrior.Development.Studio.for.HC08.v3.0 \\x0D<br />\\x0D\\x0AMetrowerks.Codewarrior.Development.Studio.For.Symbianos.v2.5.Pro.Winall-Ccf \\x0D<br />\\x0D\\x0AMetrowerks.CodeWarrior.Development.Studio.OEM.Edition.for.Symbian.OS.v3.1.1 \\x0D<br />\\x0D\\x0AMetrowerks.CodeWarrior.Development.Studio.PowerPC.v8.6 \\x0D<br />\\x0D\\x0AMetrowerks.Codewarrior.for.DSP56800.v5.02 \\x0D<br />\\x0D\\x0AMetrowerks.Codewarrior.For.Palm.Os.v9.0.Winall \\x0D<br />\\x0D\\x0AMetrowerks.CodeWarrior.For.PS2.R3.04 \\x0D<br />\\x0D\\x0AMetroWerks.CodeWarrior.HCS12.Compiler.v3.1 \\x0D<br />\\x0D\\x0AMetrowerks.Codewarrior.v6.1.for.Coldfire \\x0D<br />\\x0D\\x0AMetso.FactNet.v5.0.128 \\x0D<br />\\x0D\\x0AMetso.WinGEMS.v5.3.319 \\x0D<br />\\x0D\\x0AMeyer2010 \\x0D<br />\\x0D\\x0AMFO.v3.4.1516.0 \\x0D<br />\\x0D\\x0AMI.NASTRAN.V2.0 \\x0D<br />\\x0D\\x0AMIA-Generation.v4.9.1 \\x0D<br />\\x0D\\x0AMichlet.v9.20 \\x0D<br />\\x0D\\x0AMician.Microwave.Wizard.v7.5.Win32.64 \\x0D<br />\\x0D\\x0Amician.mwave.wizard.v7.10.win \\x0D<br />\\x0D\\x0AMicrium.uC/Probe.v2.5.Build3891 \\x0D<br />\\x0D\\x0AMicro.Saint.Sharp.v1.2 \\x0D<br />\\x0D\\x0AMicro-CAP.Pro.v9.0.7.0 \\x0D<br />\\x0D\\x0AMicrochip.Mplab.C18.C30.C32.C.Compiler's.2012 \\x0D<br />\\x0D\\x0AMICROIMAGES.TNT.V6.8 \\x0D<br />\\x0D\\x0AMicrokinetics.MillMaster.Pro.for.Windows.v3.2.17.v2.3 \\x0D<br />\\x0D\\x0AMicrokinetics.TurnMaster.Pro.for.Windows.v2.3 \\x0D<br />\\x0D\\x0AMicromine.GBIS.v7.8.0 \\x0D<br />\\x0D\\x0AMicromine.v11.0.0.743 \\x0D<br />\\x0D\\x0AMicrosim.Design.Center.v5.1 \\x0D<br />\\x0D\\x0Amicrosim.pspice.8.0 \\x0D<br />\\x0D\\x0AMicrosoft.Crm.1.2 \\x0D<br />\\x0D\\x0AMICROSOFT.ENCARTA.ENCYCLOPEDIA.DELUXE.2003.3CD \\x0D<br />\\x0D\\x0AMicrosoft.Expression.Web.2007 \\x0D<br />\\x0D\\x0AMicrosoft.ISA.Server.2004 \\x0D<br />\\x0D\\x0AMICROSOFT.NAVISION.AXAPTA.V3.0 \\x0D<br />\\x0D\\x0AMicrosoft.Navision.v4.0.SP1.2CD \\x0D<br />\\x0D\\x0AMicrosoft.Office.2010.ProfessionalPlus.with.SP1.VL.Edition.x64 \\x0D<br />\\x0D\\x0AMicrosoft.Project.Professional.2010 \\x0D<br />\\x0D\\x0AMicrosoft.Visual.Basic.Net.2003.+.serial \\x0D<br />\\x0D\\x0AMicroStation.GeoGraphics.iSpatial.Edition.07.02.04.11 \\x0D<br />\\x0D\\x0AMicroStation.GeoParcel.v07.02.04.05 \\x0D<br />\\x0D\\x0AMicroStation.PowerDraft.V8i.08..11.09.397.Cracked \\x0D<br />\\x0D\\x0AMicroStation.TriForma.Model.Control.System.07.14.17.12 \\x0D<br />\\x0D\\x0AMicroStation.V8i.SS2.08.11.07.443.crack \\x0D<br />\\x0D\\x0AMicrostran.2013.v8.11.130807 \\x0D<br />\\x0D\\x0AMicrostran.Coldes.v4.09.130415 \\x0D<br />\\x0D\\x0AMicrostran.Limcon.v3.62.140220 \\x0D<br />\\x0D\\x0AMicrostran.MStower.v6.02.002 \\x0D<br />\\x0D\\x0AMicrostran.v8.21.110530 \\x0D<br />\\x0D\\x0AMICROSTRATEGY.V7.1.4 \\x0D<br />\\x0D\\x0AMicroSurvey.CAD.2014.Studio.v14.0.2.13 \\x0D<br />\\x0D\\x0AMicroSurvey.embeddedCAD.2013.Premium.v13.0.1.0.Win32.64 \\x0D<br />\\x0D\\x0AMicroSurvey.FieldGenius.2012.v6.0.3.5 \\x0D<br />\\x0D\\x0AMicroSurvey.FieldGenius.2012.v6.0.3.5.eng.rus.ita.PPC \\x0D<br />\\x0D\\x0AMicroSurvey.FieldGenius.2012.v6.0.3.5.spanish \\x0D<br />\\x0D\\x0AMicroSurvey.inCAD.2014.v14.2.0.126 \\x0D<br />\\x0D\\x0AMicroSurvey.Layout.Pro.2013 \\x0D<br />\\x0D\\x0AMicroSurvey.MapScenes.Forensic.CAD.2013.v13.0.2.7 \\x0D<br />\\x0D\\x0AMicroSurvey.Point.Prep.2013.v13.0.0.37 \\x0D<br />\\x0D\\x0AMicroSurvey.PointCloud.CAD.2010.v10.2.0.6 \\x0D<br />\\x0D\\x0AMicroSurvey.PointPrep.2013 \\x0D<br />\\x0D\\x0AMicroSurvey.STAR.NET.v7.2.2.7 \\x0D<br />\\x0D\\x0AMicroSurvey.STARNET.v7.2.2.7 \\x0D<br />\\x0D\\x0AMIDAS GTS NX 2013 x32x64 \\x0D<br />\\x0D\\x0AMidland.Valley.Move.v2013.1.Win32.64 \\x0D<br />\\x0D\\x0AMike.Basin.v2000.for.Arview.GIS \\x0D<br />\\x0D\\x0AmikroBasic.for.dsPIC30-33.and.PIC24.v6.0.0.0 \\x0D<br />\\x0D\\x0AMikroBasic.Pro.for.AVR.2009.v1.5 \\x0D<br />\\x0D\\x0AMikroBasic.Pro.PIC.2009.v2.15 \\x0D<br />\\x0D\\x0AMikrobasic.v2.0.0.4 \\x0D<br />\\x0D\\x0AMikroC.Pro.PIC.v5.4 \\x0D<br />\\x0D\\x0AMikroElektronika.MikroBasic.For.PIC.v7.0.0.2 \\x0D<br />\\x0D\\x0AMikroElektronika.MikroC.for.dsPIC.30-33.and.PIC.24.v4.0.0.0 \\x0D<br />\\x0D\\x0AmikroElektronika.mikroC.for.PIC.v8.2.0.0 \\x0D<br />\\x0D\\x0AMikroElektronika.mikroC.PRO.for.PIC.2009.v2.15 \\x0D<br />\\x0D\\x0AMikroPascal.Pro.for.AVR.v2.10 \\x0D<br />\\x0D\\x0AMikroPascal.Pro.PIC.2009.v2.15 \\x0D<br />\\x0D\\x0AMilestones.Pro.2004 \\x0D<br />\\x0D\\x0AMilestones.Simplicity.04 \\x0D<br />\\x0D\\x0AMilkShape.3D.1.8.4 \\x0D<br />\\x0D\\x0AMill.Program.Editor.v1.2 \\x0D<br />\\x0D\\x0AMimaki.FineCut.6.2 \\x0D<br />\\x0D\\x0AMimics.16.64bit \\x0D<br />\\x0D\\x0AMindCAD.V2010.2D.Design.&.Engineering.winxp \\x0D<br />\\x0D\\x0AMindjet.JCVGantt.Pro.v3.3.0.3 \\x0D<br />\\x0D\\x0AMindjet.MindManager.v2013 \\x0D<br />\\x0D\\x0AMindManager.v9.0 \\x0D<br />\\x0D\\x0AMindMapper.v2012 \\x0D<br />\\x0D\\x0AMindView.v5.0 \\x0D<br />\\x0D\\x0AMinescape.v4.116a \\x0D<br />\\x0D\\x0AMinesched.V7.1 \\x0D<br />\\x0D\\x0AMineSight.3D.V7.91 \\x0D<br />\\x0D\\x0AMinex v6 \\x0D<br />\\x0D\\x0AMINI.SAP.6.2 \\x0D<br />\\x0D\\x0AMinitab.Quality.Companion.v3.3.6 \\x0D<br />\\x0D\\x0AMinitab.v16.2.4.4 \\x0D<br />\\x0D\\x0AMintec.MineSight.v8.10 \\x0D<br />\\x0D\\x0AMintNC.v5.Release.01.2005 \\x0D<br />\\x0D\\x0AMinutes.Matter.Studio.v3.1.1.0 \\x0D<br />\\x0D\\x0AMiraBio.DNASIS.MAX.v3.0 \\x0D<br />\\x0D\\x0AMISSLER.TOPSOLID.2014.V7.8 \\x0D<br />\\x0D\\x0AMistaya.Engineering.Windographer.Pro.v2.0.1 \\x0D<br />\\x0D\\x0AMiSUMi.2011 \\x0D<br />\\x0D\\x0AMitcalc.2D.v1.50.for.Solidworks \\x0D<br />\\x0D\\x0AMitcalc.3D.v1.60.for.Solidworks \\x0D<br />\\x0D\\x0AMITCalc.v1.7 \\x0D<br />\\x0D\\x0AMitchell.on.Demand.-.MANAGER.PLUS.v5.0 \\x0D<br />\\x0D\\x0AMITCHELL1.ONDEMAND.ESTIMATOR.5.7 \\x0D<br />\\x0D\\x0AMITCHELL1.ONDEMAND.INSTALLATION.5.7 \\x0D<br />\\x0D\\x0AMiTek.WoodEngine.2011.5.1.21.4 \\x0D<br />\\x0D\\x0AMixman.Studio.X.v5.0.98 \\x0D<br />\\x0D\\x0AMixMeister.Pro.v6.1.6.0 \\x0D<br />\\x0D\\x0AMixProps.v1.4.4 \\x0D<br />\\x0D\\x0AMKS.Source.Integrity.Enterprise.Edition.Multiplattform.v8.4.2CD \\x0D<br />\\x0D\\x0AMKS.Toolkit.v8.5 \\x0D<br />\\x0D\\x0AMLAB.v1.0.datecode.20040609 \\x0D<br />\\x0D\\x0AMMSIM.v13 \\x0D<br />\\x0D\\x0AMnermax.Planner.3.2 \\x0D<br />\\x0D\\x0AMOBILedit.Standard.v6.1.0.1634 \\x0D<br />\\x0D\\x0AMocha.AE.v3.1.1.MACOSX \\x0D<br />\\x0D\\x0AMocha.Pro.v3.1.1.MACOSX \\x0D<br />\\x0D\\x0AModbus.OPC.Server.v2.7 \\x0D<br />\\x0D\\x0AmodeFRONTIER.4.4.3 \\x0D<br />\\x0D\\x0Amodelcenter.v7.1 \\x0D<br />\\x0D\\x0AModellplan.WinTrack.3D.v7.0.6.3D \\x0D<br />\\x0D\\x0AModelMaker.Code.Explorer.v4.05 \\x0D<br />\\x0D\\x0AModelSim.6.4C \\x0D<br />\\x0D\\x0AModelSim.SE.v10.1c.v3264 \\x0D<br />\\x0D\\x0AModelsim.Xilinx.Edition.II.V5.7C \\x0D<br />\\x0D\\x0Amodelsim.win32.v6.5.se \\x0D<br />\\x0D\\x0AModScan.32.v4.A00-04 \\x0D<br />\\x0D\\x0AModSim.32.v4.A00-04 \\x0D<br />\\x0D\\x0AModulCAD.Areamanager.FM.v4.06.for.AutoCAD \\x0D<br />\\x0D\\x0AMoho.v5.4 \\x0D<br />\\x0D\\x0AMojosoft.BusinessCards.MX.v4.884.74.6 \\x0D<br />\\x0D\\x0AMojosoft.Photo.Frame.Studio.v2.4 \\x0D<br />\\x0D\\x0AMold.Wizard.For.UNIGRAPHICS.NX.V3.0 \\x0D<br />\\x0D\\x0AMoldCAE.Specialist.v3.0 \\x0D<br />\\x0D\\x0AMoldDesign.Catalogs.for.Cimatron.E.v7.0 \\x0D<br />\\x0D\\x0AMoldex.Lite.V1.0 \\x0D<br />\\x0D\\x0AMoldex3D.R11&#65288;Moldex3D.R11.cracked&#65289; \\x0D<br />\\x0D\\x0Amoldex3d.R12.SP1 \\x0D<br />\\x0D\\x0AMoldex3D.Works1.3.0 \\x0D<br />\\x0D\\x0AMOLDFLOW.CAD.DOCTOR.V1.0 \\x0D<br />\\x0D\\x0AMoldflow.CadDoctor.3.0 \\x0D<br />\\x0D\\x0AMoldflow.Communicator.v1.0 \\x0D<br />\\x0D\\x0AMoldflow.Design.Link(MDL).5.3.r1 \\x0D<br />\\x0D\\x0AMoldflow.Dynamic.Series.v9.50 \\x0D<br />\\x0D\\x0AMoldflow.insight.v2013 \\x0D<br />\\x0D\\x0AMoldflow.Magics.STL.Expert.3 \\x0D<br />\\x0D\\x0AMOLDFLOW.PLASTICS.ADVISERS.V7.3 \\x0D<br />\\x0D\\x0AMoldflow.Plastics.Insight(MPI)v6.1 \\x0D<br />\\x0D\\x0AMoldflow.v2014.WIN64 \\x0D<br />\\x0D\\x0AMoldFlow.Works.v1.1.R1 \\x0D<br />\\x0D\\x0AMoldOffice.v2005.for.SolidWorks \\x0D<br />\\x0D\\x0AMoldPlus.Metric.v9.for.MasterCAM.v9 \\x0D<br />\\x0D\\x0AMOLDPLUS.SA.CATIA.READ.WRITE.FOR.MASTERCAM.V8.1 \\x0D<br />\\x0D\\x0AMoldplus.v10.MR2.for.MastercamX4.MU3.v04.02.10 \\x0D<br />\\x0D\\x0AMoldwizard.Database.and.Misumi.for.NX.v1.01.1CD \\x0D<br />\\x0D\\x0AMoldwizard.for.Siemens.NX.v6.0 \\x0D<br />\\x0D\\x0AMoldWizard.for.UG.NX.v3.0 \\x0D<br />\\x0D\\x0AMOLDWORKS.V2004.SP1.FOR.SOLIDWORKS \\x0D<br />\\x0D\\x0AMolecular.Biology.Insights.Oligo.v7.51 \\x0D<br />\\x0D\\x0AMolecular.Operating.Environment.v2008.10 \\x0D<br />\\x0D\\x0AMolegro.Data.Modeller.2009.v2.1.0 \\x0D<br />\\x0D\\x0AMolegro.Virtual.Docker.v2010.v4.2.0 \\x0D<br />\\x0D\\x0AMolsoft.ICM-Browser-Pro.3.3 \\x0D<br />\\x0D\\x0AMolsoft.ICM-Pro.v3.4-6e \\x0D<br />\\x0D\\x0AMonacoPROFILER.v4.8.3 \\x0D<br />\\x0D\\x0AMonarch.v8.01.Pro \\x0D<br />\\x0D\\x0AMonitouch.V-SFT.2009.v5.4 \\x0D<br />\\x0D\\x0AMootools.Polygon.Cruncher.10.21 \\x0D<br />\\x0D\\x0AMorGain.2004.15.R1162 \\x0D<br />\\x0D\\x0AMORPHMAGIC./.SHOEMAGIC.5.0 \\x0D<br />\\x0D\\x0AMosek.Optimization.Tools.v6.0.0.52 \\x0D<br />\\x0D\\x0AMotionDSP.vReveal.Premium.v3.2.0 \\x0D<br />\\x0D\\x0AMotionworks.v2002 \\x0D<br />\\x0D\\x0AMotive.Systems.M-Color.v9.0 \\x0D<br />\\x0D\\x0AMotoCalc.Workbench.V8.08 \\x0D<br />\\x0D\\x0AMotor-CAD.v7.4.7 \\x0D<br />\\x0D\\x0AMotorsolve.v4.1 \\x0D<br />\\x0D\\x0AMountain.3D.v3.0 \\x0D<br />\\x0D\\x0AMove.v2013.1.1.Win64 \\x0D<br />\\x0D\\x0AMovicon.v11.3 \\x0D<br />\\x0D\\x0AMovie.Magic.Screenwriter.6.0.5.89 \\x0D<br />\\x0D\\x0AMOVITOOLS.v4.3(movitools.v4.3.software.tools.for.sew.inverter) \\x0D<br />\\x0D\\x0AMpcci.4.2.13.Win \\x0D<br />\\x0D\\x0AMpCCI.v4.3.0 \\x0D<br />\\x0D\\x0AMplab.C18.v3.0 \\x0D<br />\\x0D\\x0AMS.visio.2002 \\x0D<br />\\x0D\\x0AMSC.Actran.v13.0.Win \\x0D<br />\\x0D\\x0AMsc.Acumen.v1.1 \\x0D<br />\\x0D\\x0AMSC.Adams.v2013.2.Win32.64 \\x0D<br />\\x0D\\x0AMSC.ANALYSIS.MANAGER.V2005.R2 \\x0D<br />\\x0D\\x0AMSC.AUTOFORGE.V3.1.SP1 \\x0D<br />\\x0D\\x0AMSC.Combined.Doc.v2005 \\x0D<br />\\x0D\\x0AMSC.Construct.v3.0 \\x0D<br />\\x0D\\x0AMSC.Digimat.v4.4.1.Win64 \\x0D<br />\\x0D\\x0AMSC.Dytran.v2013.0.1.Win32.64 \\x0D<br />\\x0D\\x0AMSC.EASY5.V2013 \\x0D<br />\\x0D\\x0AMSC.MARC.V2013.1 \\x0D<br />\\x0D\\x0AMSC.Material.Center.v2013.Win64 \\x0D<br />\\x0D\\x0AMSC.Nastran.2013.Win32.64 \\x0D<br />\\x0D\\x0AMSC.PATRAN.V2013 \\x0D<br />\\x0D\\x0AMSC.SimXpert.V2013.X64 \\x0D<br />\\x0D\\x0AMSC.Sinda.V2013 \\x0D<br />\\x0D\\x0AMST2008.01 \\x0D<br />\\x0D\\x0AMSTCAD2005 \\x0D<br />\\x0D\\x0AMSteel.20060217 \\x0D<br />\\x0D\\x0AMSTower.v6.0.0 \\x0D<br />\\x0D\\x0AMTC.Pronest.v8.2.2.3084 \\x0D<br />\\x0D\\x0AMTPredictor.v6.0.build.152 \\x0D<br />\\x0D\\x0AMTS.V6.1.04 \\x0D<br />\\x0D\\x0AMultiAd.Creator.Professional.v8.5 \\x0D<br />\\x0D\\x0AMulti-DNC.v7.0 \\x0D<br />\\x0D\\x0AMultiGen.Creator.v3.2 \\x0D<br />\\x0D\\x0AMULTIGEN.PARADIGM.CREATOR.TERRAIN.STUDIO.V1.0 \\x0D<br />\\x0D\\x0AMULTIGEN.PARADIGM.CREATOR.V3.2 \\x0D<br />\\x0D\\x0AMultigen.Site.Builder.3D.v1.02.for.ArcView.GIS.v3.x \\x0D<br />\\x0D\\x0AMultiGen-Paradigm.VEGA.PRIME.for.linux.v1.2 \\x0D<br />\\x0D\\x0AMultiGen-Paradigm.VEGA.PRIME.v2.2.for.vc8 \\x0D<br />\\x0D\\x0AMultigen-Paradign.VEGA.v3.7.1 \\x0D<br />\\x0D\\x0AMulti-Instrument.v3.2 \\x0D<br />\\x0D\\x0AMULTILIZER.MultiplatFORM.V5.1.4 \\x0D<br />\\x0D\\x0AMulti-Media.Fluid.Mechanics.v1.0 \\x0D<br />\\x0D\\x0AMultiphysics.Models.for.Comsol.Multiphysics.v3.3a.Update.Only \\x0D<br />\\x0D\\x0AMultiple.Load.Footing.v4.6 \\x0D<br />\\x0D\\x0AMultisim.v13.0 \\x0D<br />\\x0D\\x0AMusicLab.RealGuitar.VSTi.DXi.RTAS.v1.5 \\x0D<br />\\x0D\\x0AMusitek.SmartScore.X.Pro.v10.2 \\x0D<br />\\x0D\\x0AMutigen-Paradigm.Vega.Prime.v2.01.Win32 \\x0D<br />\\x0D\\x0AMuvee.AutoProducer.v6.1.4.4 \\x0D<br />\\x0D\\x0AMuvee.Reveal.X.v10.5.0 \\x0D<br />\\x0D\\x0AMVS.6.6 \\x0D<br />\\x0D\\x0AMVTec.ActivVisionTools.v3.2 \\x0D<br />\\x0D\\x0AMVTec.HALCON.v11.0.1 \\x0D<br />\\x0D\\x0AMX.OPC.SERVER.v4.20 \\x0D<br />\\x0D\\x0AMX.ProjxStudio.v2.2 \\x0D<br />\\x0D\\x0AMxProps.v1.4.4 \\x0D<br />\\x0D\\x0AMy.Eclipse.EnterPrise.WorkBench.v3.6.2 \\x0D<br />\\x0D\\x0AMyBPA.1.0 \\x0D<br />\\x0D\\x0AMyCAD.MyAnal.v6.3 \\x0D<br />\\x0D\\x0AMYCAD.MYANALOG.STATION.V6.3 \\x0D<br />\\x0D\\x0AMyCAD.MyChip.2005 \\x0D<br />\\x0D\\x0AMYCAD.MYCHIP.STATION.V6.4 \\x0D<br />\\x0D\\x0AMyCAD.MyLogic.Station.v5.1 \\x0D<br />\\x0D\\x0AMyCAD.MyVHDL.v5.1 \\x0D<br />\\x0D\\x0AMYOB.Accounting.v18 \\x0D<br />\\x0D\\x0AMYOB.Premier.Accounting.v2006.v15 \\x0D<br />\\x0D\\x0AMYOB.PREMIERE.V7.5 \\x0D<br />\\x0D\\x0AMyriad.v6.1 \\x0D<br />\\x0D\\x0AMyScript.Stylus.3.2 \\x0D<br />\\x0D\\x0ANafta.v2.0 \\x0D<br />\\x0D\\x0ANaima.3E.Plus.v4.1.Build.30611 \\x0D<br />\\x0D\\x0ANanjing.Swansoft.CNC.Simulator.v6.9.1.3 \\x0D<br />\\x0D\\x0ANAPA.2011.with.License \\x0D<br />\\x0D\\x0ANASSDA.CRITIC.v5.0.01.2005.WINDOWS+LINUX \\x0D<br />\\x0D\\x0ANASSDA.HANEX.v5.0.01.2005.WINDOWS+LINUX \\x0D<br />\\x0D\\x0ANASSDA.HSIM.suite.v6.0 \\x0D<br />\\x0D\\x0ANaturalmotion.Endorphin.v2.0 \\x0D<br />\\x0D\\x0ANauticus.Hull.v2011.1 \\x0D<br />\\x0D\\x0ANauticus.Machinery.v2011.v10.1.Win \\x0D<br />\\x0D\\x0ANavisWorks.JetStream.v5.2.3 \\x0D<br />\\x0D\\x0ANavisWorks.v3.6 \\x0D<br />\\x0D\\x0ANC.Brain \\x0D<br />\\x0D\\x0ANC.Graphics.Depocam.v6.0.9 \\x0D<br />\\x0D\\x0ANC.Viewer.V3.81 \\x0D<br />\\x0D\\x0ANCBrain.v7.9.9.5 \\x0D<br />\\x0D\\x0ANCG.CAM.v12.0.01.32bit \\x0D<br />\\x0D\\x0ANCODE.V9.0 \\x0D<br />\\x0D\\x0ANCSentry.v2.1 \\x0D<br />\\x0D\\x0ANCSimul.v8.4.WiN32 \\x0D<br />\\x0D\\x0ANCSS.And.PASS.v2005.01.12 \\x0D<br />\\x0D\\x0ANCSS.PASS.GESS.Statistical.And.Data.Analysis.v2007.08.26 \\x0D<br />\\x0D\\x0ANCSS.PASS.2011.v11.0.4 \\x0D<br />\\x0D\\x0ANCSS.Statistical.And.Data.Analysis.v2005.01.21 \\x0D<br />\\x0D\\x0ANCSS.v9.2 \\x0D<br />\\x0D\\x0ANCSS.with.GESS.2007.v7.1.13 \\x0D<br />\\x0D\\x0ANCViewer.v4.72 \\x0D<br />\\x0D\\x0ANE.Nastran.Engine.v8.3.1 \\x0D<br />\\x0D\\x0ANE.Nastran.Modeler.v8.3.0 \\x0D<br />\\x0D\\x0ANE.Nastran.V8.16 \\x0D<br />\\x0D\\x0ANEC.EMIStream.v4.5001 \\x0D<br />\\x0D\\x0ANedgraphics.Vision.Fashion.Studio.2007 \\x0D<br />\\x0D\\x0ANEiFusion.v2.0.Win32 \\x0D<br />\\x0D\\x0ANemetschek.Allplan.BCM.v2014 \\x0D<br />\\x0D\\x0ANemetschek.Allplan.V2014.0.1 \\x0D<br />\\x0D\\x0ANemetschek.Frilo.R-2011.1 \\x0D<br />\\x0D\\x0ANemetschek.PlanDesign.v2004.0 \\x0D<br />\\x0D\\x0ANemetschek.Scia.Engineer.v2009 \\x0D<br />\\x0D\\x0ANemetschek.Vectorworks.2012 \\x0D<br />\\x0D\\x0ANemetschek.Vectorworks.2014.MacOSX \\x0D<br />\\x0D\\x0ANemetschek.VectorWorks.RenderWorks.Addon.v11.0.WiN32 \\x0D<br />\\x0D\\x0ANEMETSCHEK.VECTORWORKS.V11.5 \\x0D<br />\\x0D\\x0ANemetschek.VectorWorks.v2010.SP2 \\x0D<br />\\x0D\\x0ANEMO.ANALYZE.v5.19.Win \\x0D<br />\\x0D\\x0ANemo.Outdoor.v5.60.6 \\x0D<br />\\x0D\\x0ANeo3D.v5.04.build.261.Win32.64 \\x0D<br />\\x0D\\x0Aneocircuit.3.4 \\x0D<br />\\x0D\\x0ANeoForm.v4.52 \\x0D<br />\\x0D\\x0ANeotec.FORGAS.v10.1.5 \\x0D<br />\\x0D\\x0ANeotec.PIPEFLO.v8.5.12 \\x0D<br />\\x0D\\x0ANeotec.WELLFLO.v8.3.0 \\x0D<br />\\x0D\\x0Aneplan.v5.3.51 \\x0D<br />\\x0D\\x0ANERSim(ex.Nafta).v1.05 \\x0D<br />\\x0D\\x0ANetlist.ECO.GOF.v4.0.Linux32.64 \\x0D<br />\\x0D\\x0ANetSupport.School.Professional.v11.0 \\x0D<br />\\x0D\\x0ANetter.Interactive.Atlas.Of.Human.Anatomy.v3.0 \\x0D<br />\\x0D\\x0ANetviz.70 \\x0D<br />\\x0D\\x0ANeuralog.NeuraSection.v2011.8 \\x0D<br />\\x0D\\x0ANeuralog.NeuraView.v2011.7 \\x0D<br />\\x0D\\x0ANeuralog.v2013.06 \\x0D<br />\\x0D\\x0ANeuraMap.v2008.12 \\x0D<br />\\x0D\\x0ANeuraSuite.v2005.11 \\x0D<br />\\x0D\\x0ANeuratron.Photoscore.Ultimate.v6.1 \\x0D<br />\\x0D\\x0ANeuraView.v2008.05 \\x0D<br />\\x0D\\x0ANEUROEXPLORER.v3.093 \\x0D<br />\\x0D\\x0ANeuroscan.v4.5 \\x0D<br />\\x0D\\x0ANeuroSolutions.v5.07 \\x0D<br />\\x0D\\x0ANeverCenter.Silo.v2.0.6 \\x0D<br />\\x0D\\x0ABentley.RM.Bridge(TDV).V8i.(SELECTseries.2).08.10.03.02 \\x0D<br />\\x0D\\x0ANEW.RIDERS.PRESS.INSIDE.3DS.MAX.4 \\x0D<br />\\x0D\\x0ANew.River.Kinematics.Spatial.Analyzer.v2008.12.22 \\x0D<br />\\x0D\\x0ANewtek.LightWave3D.v11.6.2.Win32.64.&.MacOSX \\x0D<br />\\x0D\\x0ANewTek.SpeedEDIT.v1.5.1 \\x0D<br />\\x0D\\x0ANexgen.Ergonomics.ManneQuinPRO.v10.2 \\x0D<br />\\x0D\\x0ANext.Limit.Maxwell.Render.v2.5.Plugins.Win32.64 \\x0D<br />\\x0D\\x0ANext.Limit.RealFlow.v2012 \\x0D<br />\\x0D\\x0ANext.Limit.Technologies.XFlow.2013 \\x0D<br />\\x0D\\x0ANext.Limit.xFlow.2013.b90.win64 \\x0D<br />\\x0D\\x0ANextLimit.Maxwell.Render.v2.7.25.SketchUp.v2013 \\x0D<br />\\x0D\\x0ANextLimit.Maxwell.Studio.Ver.2.1.x32x64 \\x0D<br />\\x0D\\x0ANextLimit.RealFlow.v2013(WinMacOSXLinux) \\x0D<br />\\x0D\\x0ANextLimit.XFlow.2013.build.90.Win64.&.Linux64 \\x0D<br />\\x0D\\x0ANEXTPAGE.FOLIO.BUILDER.V4.5 \\x0D<br />\\x0D\\x0ANEXTPAGE.FOLIO.INTEGRATOR.V4.5 \\x0D<br />\\x0D\\x0ANEXTPAGE.FOLIO.PUBLISHER.V4.5 \\x0D<br />\\x0D\\x0ANEXTPAGE.FOLIO.VIEWS.V4.5 \\x0D<br />\\x0D\\x0ANexus5000 \\x0D<br />\\x0D\\x0ANexusDB.Developer.Edition.v2.03.Delphi.BCB.Retail \\x0D<br />\\x0D\\x0ANI-488.2.v2.3 \\x0D<br />\\x0D\\x0ANiceLabel.Pro.v3.6.5 \\x0D<br />\\x0D\\x0ANihon.Unisys.Dynavista.v9.2 \\x0D<br />\\x0D\\x0ANI-IMAQ.for.IEEE.1394.v2.0.1 \\x0D<br />\\x0D\\x0ANik.Software.Color.Efex.Pro.v4.005 \\x0D<br />\\x0D\\x0ANik.Software.Silver.Efex.Pro.v2.006 \\x0D<br />\\x0D\\x0ANIKA.EFD.Pro.v8.2 \\x0D<br />\\x0D\\x0ANikon.Camera.Control.Pro.v2.11.Mac \\x0D<br />\\x0D\\x0ANikon.Capture.NX2.v2.3.5 \\x0D<br />\\x0D\\x0ANIL.Signal.Express.v2.5 \\x0D<br />\\x0D\\x0ANISA.DesignStudio.Pro.v16.0 \\x0D<br />\\x0D\\x0ANIST-Refprop.v7.0 \\x0D<br />\\x0D\\x0ANITF.for.ArcGIS.v1.0 \\x0D<br />\\x0D\\x0ANI-VISA.v5.2 \\x0D<br />\\x0D\\x0AnLint2.2.v24 \\x0D<br />\\x0D\\x0ANLogit.4.0 \\x0D<br />\\x0D\\x0ANLREG.Advanced.v6.2 \\x0D<br />\\x0D\\x0ANLSA.Nova.v2.2b36.WinALL \\x0D<br />\\x0D\\x0ANobeltec.Admiral.v7.0 \\x0D<br />\\x0D\\x0ANobeltec.Visual.Navigation.Suite.v7.0 \\x0D<br />\\x0D\\x0ANODALIDEAS.AMLETO.v3.0.FOR.LIGHTWAVE \\x0D<br />\\x0D\\x0ANoesis.Optimus.v5.0.Sp1 \\x0D<br />\\x0D\\x0ANonlinear.Dynamics.TotalLab.TL120.v2009 \\x0D<br />\\x0D\\x0ANorsar.2D.v5.16.Linux \\x0D<br />\\x0D\\x0ANorsar.3D.v5.44.Linux \\x0D<br />\\x0D\\x0Anovacast.Foundry.Technology.III \\x0D<br />\\x0D\\x0ANovaFlow.&.Solid.CV.V4.4 \\x0D<br />\\x0D\\x0ANovaFlow.CV.(aka.LVMFlow).v4.6.r4 \\x0D<br />\\x0D\\x0ANovaFlow.Solid.2.92r10 \\x0D<br />\\x0D\\x0ANovaMind.v5.73 \\x0D<br />\\x0D\\x0ANovapoint.v17.20 \\x0D<br />\\x0D\\x0ANovas.2011.10.Linux \\x0D<br />\\x0D\\x0ANovas.Debussy.v6.1.Linux \\x0D<br />\\x0D\\x0ANOVAS.NCOMPARE.V5.2.R12.for.LINUX \\x0D<br />\\x0D\\x0ANovas.nLint.2011.10.for.Linux32.64.&.Solaris \\x0D<br />\\x0D\\x0ANOVAS.nlint.v2.2.r24 \\x0D<br />\\x0D\\x0ANovas.v2010.04.Linux64 \\x0D<br />\\x0D\\x0ANovas.Verdi.V2011.01 \\x0D<br />\\x0D\\x0ANovation.Bass-Station.VSTi.for.Cubase.SX3.v1.41 \\x0D<br />\\x0D\\x0ANovation.V-Station.VSTi.for.Cubase.SX3.v1.41 \\x0D<br />\\x0D\\x0ANovo.LateralK.2.4.0.10 \\x0D<br />\\x0D\\x0ANovo.Vislog.2.3.0.24 \\x0D<br />\\x0D\\x0ANovoasoft.ScienceWord.v5.0 \\x0D<br />\\x0D\\x0ANovoCPT.1.2.0.156 \\x0D<br />\\x0D\\x0ANovoLiq.1.5.0.45 \\x0D<br />\\x0D\\x0ANovoSPT.V1.9.3.46 \\x0D<br />\\x0D\\x0ANovoTech.NovoSPT.2.30.2011.1207 \\x0D<br />\\x0D\\x0ANozzle.ProFessional.7.0 \\x0D<br />\\x0D\\x0ANPO.MKM.LVMFlow.V4.6r42 \\x0D<br />\\x0D\\x0ANPower.Power.Booleans.v3.5.for.Rhino \\x0D<br />\\x0D\\x0AnPower.PowerSurfacing.v1.40.7852.for.SW2012-2014.64bit \\x0D<br />\\x0D\\x0ANREC.MAX-PAC.7.0.30 \\x0D<br />\\x0D\\x0Ans.vZ-2007.03 \\x0D<br />\\x0D\\x0AnSoft.v5.3.1 \\x0D<br />\\x0D\\x0ANTI.FENSAP-ICE.R1.0.Windows \\x0D<br />\\x0D\\x0ANTI.FENSAP-ICE.R1.1.Linux \\x0D<br />\\x0D\\x0ANTI.Media.Maker.v8.0 \\x0D<br />\\x0D\\x0ANuance.PaperPort.Professional.v14.1 \\x0D<br />\\x0D\\x0ANuance.ScanSoft.PDF.Converter.Pro.v8.1 \\x0D<br />\\x0D\\x0ANucleusUDB.v4.3 \\x0D<br />\\x0D\\x0ANuhertz.Filter.Solutions.2013.v13.5.0 \\x0D<br />\\x0D\\x0ANuhertz.Zmatch.v4.0.4 \\x0D<br />\\x0D\\x0ANuke.v7.0 \\x0D<br />\\x0D\\x0ANUKED-Speedikon.W.Architektur.2.v6.021 \\x0D<br />\\x0D\\x0ANumber.One.Systems.Easy-PC.PCB.v15.03.0.Full \\x0D<br />\\x0D\\x0ANumeca.AutoBlade.v8.6.1 \\x0D<br />\\x0D\\x0ANumeca.Cfview.v8.6.1 \\x0D<br />\\x0D\\x0ANumeca.Fine.HexaNumeca.Hexpress.v2.9.1 \\x0D<br />\\x0D\\x0ANumeca.Fine.Marine.v3.1-1.Win32.64.&.Linux \\x0D<br />\\x0D\\x0ANumeca.Fine.Open.v3.1-2.Win32.64.&.Linux \\x0D<br />\\x0D\\x0ANumeca.Fine.Suite.v8.10.3.WinALL \\x0D<br />\\x0D\\x0ANumeca.Fine.Suite.v8.9.1.Linux \\x0D<br />\\x0D\\x0ANUMECA.FINE.TURBO.DESIGN.v9.0.3.WINDOWS.x64x32.LINUX64 \\x0D<br />\\x0D\\x0ANUMECA.Fine/Marine.3.1-1.Win/Linux \\x0D<br />\\x0D\\x0ANUMECA.FINE/Open.3.1-1.Win/Linux \\x0D<br />\\x0D\\x0ANumeca.FINETurbo.v9.0 \\x0D<br />\\x0D\\x0ANumeca.Hexpress.Hybrid.v3.1-2.Windows.&.Linux \\x0D<br />\\x0D\\x0ANUMECA.Hexpress.v1.2.2.INTERNAL-Substance \\x0D<br />\\x0D\\x0ANumeca.Igg.AutoGrid5.v8.6.2 \\x0D<br />\\x0D\\x0ANUMEGA.SOFTICE.4.05 \\x0D<br />\\x0D\\x0Anwdesigns.metacut.pro.v1.42 \\x0D<br />\\x0D\\x0ANX.CAST.8.5.Win32.64 \\x0D<br />\\x0D\\x0ANX.I-DEAS.6.3.M0 \\x0D<br />\\x0D\\x0ANX.Imageware.v13.2 \\x0D<br />\\x0D\\x0AOakComm.v1.20.3 \\x0D<br />\\x0D\\x0AOakTurn.v1.2.4 \\x0D<br />\\x0D\\x0AOasis.Montaj.v7.3 \\x0D<br />\\x0D\\x0AOasys.AdSec.v8.2 \\x0D<br />\\x0D\\x0AOasys.Alp.v19.114 \\x0D<br />\\x0D\\x0AOasys.Analysis.and.Design.of.Concrete.(ADC).v8.3 \\x0D<br />\\x0D\\x0AOasys.Compos.v8.2 \\x0D<br />\\x0D\\x0AOasys.Frew.v19.1.SP1 \\x0D<br />\\x0D\\x0AOASYS.GEO.V17.9.0 \\x0D<br />\\x0D\\x0AOasys.Greta.v19.002 \\x0D<br />\\x0D\\x0AOasys.GSA.Suite.v8.6.SP1.build.15.Win32 \\x0D<br />\\x0D\\x0AOasys.Ltd.LS-DYNA.Environment.V10.0 \\x0D<br />\\x0D\\x0AOasys.Pdisp.v19.102 \\x0D<br />\\x0D\\x0AOasys.Pile.v19.4.0.4 \\x0D<br />\\x0D\\x0AOasys.Pilset.v19.104 \\x0D<br />\\x0D\\x0AOasys.Safe.v19.0.5.44 \\x0D<br />\\x0D\\x0AOasys.Sigraph.v9.001 \\x0D<br />\\x0D\\x0AOasys.Slope.v19.0.3515 \\x0D<br />\\x0D\\x0AOasys.Suite.v11.1.Win32.64.&.Linux32.64 \\x0D<br />\\x0D\\x0AOasys.Xdisp.v19.3.1525 \\x0D<br />\\x0D\\x0AObjective.v2.02.For.ArchiCAD.v11 \\x0D<br />\\x0D\\x0Aoffice.2013 \\x0D<br />\\x0D\\x0AOFM 2012 \\x0D<br />\\x0D\\x0AOilfield.Data.Manager.3.7.06 \\x0D<br />\\x0D\\x0Aok.Azeotech.DAQFactory.Standard.v5.02 \\x0D<br />\\x0D\\x0AOkino.PolyTrans.v4.3.8 \\x0D<br />\\x0D\\x0AOkino.Products.Suite.v4.12 \\x0D<br />\\x0D\\x0AOlga.Advance.Blowout.Control(ABC).v2.20 \\x0D<br />\\x0D\\x0AOLGA.v7.1 \\x0D<br />\\x0D\\x0AOLI.Systems.2010.OLI.Analyzer.v3.1.3.+.OLI.ScaleChem.v4.0.3 \\x0D<br />\\x0D\\x0AO-Matrix.v6.0 \\x0D<br />\\x0D\\x0AOMEGA.v2.8 \\x0D<br />\\x0D\\x0AOmegon.Fluid.Technology.2.v2.0.5.2 \\x0D<br />\\x0D\\x0AOmmic.ED02AH.Libary.v2.6.for.ADS.2002 \\x0D<br />\\x0D\\x0AOmni.3D.v12.0.Win32.64 \\x0D<br />\\x0D\\x0AOmniCAD.v1.0.0.2125.for.Siemens.PLM.NX.v9.0.Win64 \\x0D<br />\\x0D\\x0AOMRON.CX-ONE.v4.2.CX-Programmer.v9.3 \\x0D<br />\\x0D\\x0AOMRON.CX-Programmer.V5.0 \\x0D<br />\\x0D\\x0AOMRON.Mptst4.0 \\x0D<br />\\x0D\\x0AOMRON.NTST.v4.8 \\x0D<br />\\x0D\\x0AOne.DNC.v2.0.5.0 \\x0D<br />\\x0D\\x0AOneCNC.v4.22.full \\x0D<br />\\x0D\\x0AOneSpace.Designer.Modeling.2004.v12.0.0.8 \\x0D<br />\\x0D\\x0AOnyx.Postershop.7.0 \\x0D<br />\\x0D\\x0AOnyx.ProductionHouse.X10 \\x0D<br />\\x0D\\x0AOnyxTREE.PROFESSIONAL.Suite.v6 \\x0D<br />\\x0D\\x0AOPEL.EPC.v10.03.2CD \\x0D<br />\\x0D\\x0AOPEN.MIND.HyperFORM.v6.0.ServicePack.1 \\x0D<br />\\x0D\\x0AOPEN.MIND.hyperFORM.v6.0.with.5AXIS.v6.0.(2CD) \\x0D<br />\\x0D\\x0AOPEN.MIND.HyperMill.AMD.v6.1 \\x0D<br />\\x0D\\x0AOpenCanvas.v5.1.04 \\x0D<br />\\x0D\\x0AOpenFlower.v1.0 \\x0D<br />\\x0D\\x0AOpenFOAM.v1.3 \\x0D<br />\\x0D\\x0AOpenGVS.v4.5 \\x0D<br />\\x0D\\x0AOpenMind.CAMUtilities.v6.SP3 \\x0D<br />\\x0D\\x0AOpenMind.HyperCAD.2005.1.8.12.2005 \\x0D<br />\\x0D\\x0AOPENMIND.HYPERMILL.V9.6 \\x0D<br />\\x0D\\x0AOpenSpirit.v3.2.2.Linux.windwos \\x0D<br />\\x0D\\x0AOpera.v12.003 \\x0D<br />\\x0D\\x0AOPNET.Modeler.17.1.A.PL2.Linux \\x0D<br />\\x0D\\x0AOPNET.Modeler.v14.5.Windows \\x0D<br />\\x0D\\x0AOPOS.v4.9 \\x0D<br />\\x0D\\x0AOPT.2005 \\x0D<br />\\x0D\\x0AOptcalc.v2001 \\x0D<br />\\x0D\\x0AOptenni.Lab.2.0 \\x0D<br />\\x0D\\x0AOptical.LightTools.6.0 \\x0D<br />\\x0D\\x0AOPTICAL.RESEARCH.ASSOCIATES.CodeV.V10.4.311(SR1) \\x0D<br />\\x0D\\x0AOPTICAL.RESEARCH.ASSOCIATES.LIGHTTOOLS.V7.3.0 \\x0D<br />\\x0D\\x0AOpticore.Opus.Realizer.v1.5 \\x0D<br />\\x0D\\x0AOpticore.Opus.Studio.v4.1 \\x0D<br />\\x0D\\x0AOptima.Opty-way.v6.2.5.1.Win \\x0D<br />\\x0D\\x0AOptimal.Cutting.Optimization.Pro.v9.5.9.7.7 \\x0D<br />\\x0D\\x0AOptimal.Programs.Cutting.Optimization.Pro.v5.9.7.7 \\x0D<br />\\x0D\\x0AOptimal.Solutions.Sculptor.v3.4.2.Win64 \\x0D<br />\\x0D\\x0AOptimized.Gas.Treating.ProTreat.v5.0 \\x0D<br />\\x0D\\x0AOptimumG.OptimumKinematics.2.0.2.0401 \\x0D<br />\\x0D\\x0AOptimumKinematics.v2.0.2 \\x0D<br />\\x0D\\x0AOPTIMUS.v5.0.SP1 \\x0D<br />\\x0D\\x0AOptiNet.v7.4.Win \\x0D<br />\\x0D\\x0AOPTIS.OptisWorks.v2011.v32.v64bits \\x0D<br />\\x0D\\x0AOptitex.v11.0 \\x0D<br />\\x0D\\x0AOptiwave.OptiBPM.11.0 \\x0D<br />\\x0D\\x0AOptiwave.OptiFDTD.10 \\x0D<br />\\x0D\\x0AOptiwave.OptiFiber.v2.1.0.145 \\x0D<br />\\x0D\\x0AOptiwave.OptiGrating.v4.2.2 \\x0D<br />\\x0D\\x0AOptiwave.OptiSPICE.2.0 \\x0D<br />\\x0D\\x0Aoptiwave.optisystem.12.2.win \\x0D<br />\\x0D\\x0AORA.CODE.V.10.4.296.Win \\x0D<br />\\x0D\\x0AOra.Code.V.v10.4.x32 \\x0D<br />\\x0D\\x0AORA.LightTools.7.3.0.Win64 \\x0D<br />\\x0D\\x0AOracle.v11.2.0.2.Linux32.64 \\x0D<br />\\x0D\\x0AOrange.Technologies.Cadpipe.Suite.v12.6 \\x0D<br />\\x0D\\x0AOrca3D.v1.2.3 \\x0D<br />\\x0D\\x0AOrcaFlex.Dynamics.v8.2 \\x0D<br />\\x0D\\x0AOrchid.Medical.Spa.v9.0 \\x0D<br />\\x0D\\x0Aorcina.orcaflex.8.2.win \\x0D<br />\\x0D\\x0AOrica.SHOTPlus-i.v4.88.build.2006 \\x0D<br />\\x0D\\x0AOrigin.Pro9.0 \\x0D<br />\\x0D\\x0AOriginLab.OriginPro.v9.1.SR2 \\x0D<br />\\x0D\\x0AOriginPro.v8.5.0.SR1 \\x0D<br />\\x0D\\x0Aorima.for.socet.5.2 \\x0D<br />\\x0D\\x0AOrima.v8.72.for.Socet.Set.v5.2 \\x0D<br />\\x0D\\x0AORTHOCRAT.TRAUMACAD.V2.0 \\x0D<br />\\x0D\\x0AOSC.Automatic.Test.Generation.v3.1.356.for.Rhapsody.7.0 \\x0D<br />\\x0D\\x0AOSCTest.Conductor.v1.7.421.for.Rhapsody.7.0 \\x0D<br />\\x0D\\x0AOSG.Composer.CAD.v1.2 \\x0D<br />\\x0D\\x0AOshonsoft.8085.Simulator.IDE.v2.60 \\x0D<br />\\x0D\\x0AOshonsoft.AVR.Simulator.IDE.v1.30 \\x0D<br />\\x0D\\x0AOshonsoft.Function.Grapher.v1.20 \\x0D<br />\\x0D\\x0AOshonsoft.PIC.Simulator.IDE.v6.91 \\x0D<br />\\x0D\\x0AOshonsoft.PIC10F.Simulator.IDE.v1.40 \\x0D<br />\\x0D\\x0AOshonsoft.PIC18.Simulator.IDE.v2.60 \\x0D<br />\\x0D\\x0AOshonsoft.Z80.Simulator.IDE.v9.60 \\x0D<br />\\x0D\\x0AOSLO.Premium.v6.5.0 \\x0D<br />\\x0D\\x0AOSLO.PREMIUM.V6.46 \\x0D<br />\\x0D\\x0AOverland.Conveyor.Belt.Analyst.v12.3.2 \\x0D<br />\\x0D\\x0AOVPsim.v20120614.0 \\x0D<br />\\x0D\\x0APAC4SWX.Version.1.5.0 \\x0D<br />\\x0D\\x0APacestar.Edge.Diagramer.v6.00.2003 \\x0D<br />\\x0D\\x0APaceStar.WizFlow.Flowcharter.Professional.v5.09 \\x0D<br />\\x0D\\x0APackage.Designer.v2011 \\x0D<br />\\x0D\\x0APACSYS.PAFEC-FE.V8.8 \\x0D<br />\\x0D\\x0APAD4.8 \\x0D<br />\\x0D\\x0APADS.9.4.1 \\x0D<br />\\x0D\\x0APADS.PCB.2005.Build.7.1 \\x0D<br />\\x0D\\x0APADS.Translator.2007.1 \\x0D<br />\\x0D\\x0APADS.v2012 \\x0D<br />\\x0D\\x0APadus.DiscJuggler.v6.0.NET \\x0D<br />\\x0D\\x0APAFEC-FE.V8.8 \\x0D<br />\\x0D\\x0APaintCOST.Estimator.for.Excel.v6.01 \\x0D<br />\\x0D\\x0APaintShop.Pro.9 \\x0D<br />\\x0D\\x0APaletteCAD.v2.3.German \\x0D<br />\\x0D\\x0APALISADE.DecisionTools.Suite.v6.1.2.Win \\x0D<br />\\x0D\\x0APalisade.Risk.IndustrialL.For.Excel.v5.5 \\x0D<br />\\x0D\\x0APALMER.PE.PCMSCAN.V2.4.8 \\x0D<br />\\x0D\\x0APALMER.PE.SCANXL.ELM.V2.0.7 \\x0D<br />\\x0D\\x0APALS2000.R5.v5.0.15 \\x0D<br />\\x0D\\x0APAMCRASH.VERSION \\x0D<br />\\x0D\\x0APAM-Stamp.v2G.v2012.0 \\x0D<br />\\x0D\\x0APandromeda.Mojoworld.v3.0.Professional \\x0D<br />\\x0D\\x0APanelBuilder32.v3.82.01 \\x0D<br />\\x0D\\x0APangaea.Scientific.SpheriStat.v3.0 \\x0D<br />\\x0D\\x0APansystem.v2012.v4.0.4 \\x0D<br />\\x0D\\x0AParadigm.C++.PRO \\x0D<br />\\x0D\\x0AParadigm.Epos.v4.0.Win32 \\x0D<br />\\x0D\\x0AParadigm.Geolog.V7.0.X64 \\x0D<br />\\x0D\\x0AParadigm.GOCAD.V2011.x64 \\x0D<br />\\x0D\\x0AParadigm.Interpret.V2008 \\x0D<br />\\x0D\\x0AParadigm.SKUA.V2009.3P1 \\x0D<br />\\x0D\\x0AParadigm.Sysdrill.v2009 \\x0D<br />\\x0D\\x0AParaform.v3.0 \\x0D<br />\\x0D\\x0AParallel.Geoscience.Seismic.Processing.Workshop(SPW).v2.2.12 \\x0D<br />\\x0D\\x0AParallel.SmartSpice.1.9.3.E \\x0D<br />\\x0D\\x0AParamos.2009.03.Linux \\x0D<br />\\x0D\\x0AParaSoft.C++.Test.Professional.6.7.4.0 \\x0D<br />\\x0D\\x0AParasoft.Insure.Plus.Plus.v7.0.8 \\x0D<br />\\x0D\\x0AParaSoft.Insure++.7.0.8 \\x0D<br />\\x0D\\x0AParasoft.JTest.Professional.v7.5.59.JAVA \\x0D<br />\\x0D\\x0AParasoft.SOA.Test.v4.5 \\x0D<br />\\x0D\\x0AParCAM.v8.0c \\x0D<br />\\x0D\\x0AParkCAD.v4.0.1.125.for.Transoft.AutoTURN.3D.8.0.1 \\x0D<br />\\x0D\\x0AParkCAD.v4.0.for.AutoCAD.2010 \\x0D<br />\\x0D\\x0AParker.O-ring.Division.Europe.v2.0 \\x0D<br />\\x0D\\x0APartMaker.v6.0 \\x0D<br />\\x0D\\x0APartMaster.Premium.v10.0.1006 \\x0D<br />\\x0D\\x0AParts.&.Vendors.v6.0 \\x0D<br />\\x0D\\x0APAS.Analysis.Center.v3.5 \\x0D<br />\\x0D\\x0APASTech.UWinWks.v2.06 \\x0D<br />\\x0D\\x0APASW.MODLER.13.(Spss.clementine.13) \\x0D<br />\\x0D\\x0APathfinder.emergency.egress.simulator-2011 \\x0D<br />\\x0D\\x0APathLoss.v5.0 \\x0D<br />\\x0D\\x0APathtrace.Engineering.Systems \\x0D<br />\\x0D\\x0APattern.Maker.For.Cross.Stitch.v4.04 \\x0D<br />\\x0D\\x0APatternMaker.Marker.Studio.v7.0.5 \\x0D<br />\\x0D\\x0APaula.SG.v1.1.0.6 \\x0D<br />\\x0D\\x0APaulin.Research.Group.V2011(FEPIPE6.5,Nozzle8.5) \\x0D<br />\\x0D\\x0APC.CRASH.v8.0 \\x0D<br />\\x0D\\x0Apc.dmis.v4.2 \\x0D<br />\\x0D\\x0APC.DNC.SUITE.v3.0 \\x0D<br />\\x0D\\x0APC.MACLAN.v8.1.2.for.Win2KXP \\x0D<br />\\x0D\\x0APC.OMR.v3.0 \\x0D<br />\\x0D\\x0APc.Progress.Hydrus.v1.12.(3D.Standard) \\x0D<br />\\x0D\\x0APC|SCHEMATIC.Automation.14.02 \\x0D<br />\\x0D\\x0APCA.BEAM.V1.51 \\x0D<br />\\x0D\\x0APCA.COL.v2.0 \\x0D<br />\\x0D\\x0APCA.COLUMN.V3.64 \\x0D<br />\\x0D\\x0APCA.MATS.V6.1 \\x0D<br />\\x0D\\x0APCA.SLAB.V1.51 \\x0D<br />\\x0D\\x0APCA.StructurePoint.spBeam.v3.50 \\x0D<br />\\x0D\\x0APCA.StructurePoint.spColumn.v4.81 \\x0D<br />\\x0D\\x0APCA.StructurePoint.spFrame.v1.50 \\x0D<br />\\x0D\\x0APCA.StructurePoint.spMats.v7.51 \\x0D<br />\\x0D\\x0APCA.StructurePoint.spSlab.v3.50 \\x0D<br />\\x0D\\x0APCA.StructurePoint.spWall.v4.02 \\x0D<br />\\x0D\\x0APCA.WALL.V3.02 \\x0D<br />\\x0D\\x0ApcaColumn.v3.00c \\x0D<br />\\x0D\\x0AP-CAD.v2006.SP2 \\x0D<br />\\x0D\\x0APCAD.v2012 \\x0D<br />\\x0D\\x0ApcaFrame.v1.10b \\x0D<br />\\x0D\\x0ApcaWall.v2.00c \\x0D<br />\\x0D\\x0APCB.Investigator.V3.41 \\x0D<br />\\x0D\\x0APCB.Matrix.IPC.7351A.LP.Wizard.v7.02 \\x0D<br />\\x0D\\x0APCB.Navigator.5.1 \\x0D<br />\\x0D\\x0APCB.professional.5.03 \\x0D<br />\\x0D\\x0APCB.Router.Specctra.v16.2 \\x0D<br />\\x0D\\x0APCB.Wizard.Pro.v3.50 \\x0D<br />\\x0D\\x0APCBM.LP.Provisional.v2009.PCB \\x0D<br />\\x0D\\x0APCBM.SymbolWizard.Provisional.v2.46.03 \\x0D<br />\\x0D\\x0APCBM.SYMWIZ.v2.46.03 \\x0D<br />\\x0D\\x0APCCAD2012 \\x0D<br />\\x0D\\x0APC-CRASH.v8.0 \\x0D<br />\\x0D\\x0APC-DMIS.v4.2 \\x0D<br />\\x0D\\x0APC-DNC.Suite.v3 \\x0D<br />\\x0D\\x0APCFLO.v6.0 \\x0D<br />\\x0D\\x0APCI.Geomatica.V2013.X86+X64 \\x0D<br />\\x0D\\x0APCI9.0 \\x0D<br />\\x0D\\x0APC-Lint.v9.0 \\x0D<br />\\x0D\\x0APC-RECT.v3.0 \\x0D<br />\\x0D\\x0Apcs7.v6.1.SP1 \\x0D<br />\\x0D\\x0APcschematic.Automation.v14.0.2.1.Win32.64 \\x0D<br />\\x0D\\x0APCschematic.Elautomation.v10.0 \\x0D<br />\\x0D\\x0Apcschematic.v14 \\x0D<br />\\x0D\\x0Apcselcad.v13.02 \\x0D<br />\\x0D\\x0APCStitch.Pro.v10.00.022 \\x0D<br />\\x0D\\x0APCV.ver5.0 \\x0D<br />\\x0D\\x0APCWH.v3.227 \\x0D<br />\\x0D\\x0APDMAX.v1.3 \\x0D<br />\\x0D\\x0APDMS.CatView.v11.6 \\x0D<br />\\x0D\\x0APDMS.ImPLANT-I.v1.5.1 \\x0D<br />\\x0D\\x0APDMS.ImPLANT-STL.v1.1.1 \\x0D<br />\\x0D\\x0APDMS.v12.11 \\x0D<br />\\x0D\\x0APDS.8.0 \\x0D<br />\\x0D\\x0APDS2000.v3.6.0.6 \\x0D<br />\\x0D\\x0APDsoft.3Dpiping.v2.5 \\x0D<br />\\x0D\\x0APeachtree.Premium.Accounting.v2006 \\x0D<br />\\x0D\\x0APeakFPGA.Design.Suite.V5.20c \\x0D<br />\\x0D\\x0APeakVHDL.Pro.v4.21a \\x0D<br />\\x0D\\x0APED.Professional.v5.0.0 \\x0D<br />\\x0D\\x0APE.Design.v9.13 \\x0D<br />\\x0D\\x0APenguin.v2.0.SR1.For.Rhino.v4.0 \\x0D<br />\\x0D\\x0Apentagon.3d.all \\x0D<br />\\x0D\\x0APentaLogix.CAMMaster.v11.6.0 \\x0D<br />\\x0D\\x0APentaLogix.collection.ProbeMaster.v11.0.56 \\x0D<br />\\x0D\\x0APentaLogix.FixMaster.v11.0.52 \\x0D<br />\\x0D\\x0APentaLogix.ProbeMaster.v11.0.56 \\x0D<br />\\x0D\\x0APentaLogix.RoutMaster.v9.4.30 \\x0D<br />\\x0D\\x0APentaLogix.ViewMate.Pro.v11.6.0 \\x0D<br />\\x0D\\x0APerception.SymXpert.4.1 \\x0D<br />\\x0D\\x0APERFECT.PHOTO.SUITE.v7.0 \\x0D<br />\\x0D\\x0APerFect.Photo.Suite.v7.0.1.MacOSX \\x0D<br />\\x0D\\x0APERFORM.3D.V5.0.0 \\x0D<br />\\x0D\\x0APerformance.Trends.Engine.Analyzer.Pro.v3.3 \\x0D<br />\\x0D\\x0APERI.ELPOS.V4.0 \\x0D<br />\\x0D\\x0APERI.PeriCAD.FormWork.v3.0 \\x0D<br />\\x0D\\x0APeriCAD.2006.for.Autodesk.Architectural.Desktop.2006 \\x0D<br />\\x0D\\x0APermedia.Mpath.v4.16.0 \\x0D<br />\\x0D\\x0APersonalBrain.v5.5.2.4 \\x0D<br />\\x0D\\x0APetra 3.18 \\x0D<br />\\x0D\\x0APetrel.v2013.2 \\x0D<br />\\x0D\\x0APetrisWinds.Recall.v5.4.2.013.Win32 \\x0D<br />\\x0D\\x0APetroleum.Experts.GAP.8.1.Run \\x0D<br />\\x0D\\x0APetroleum.Experts.IPM.v7.5 \\x0D<br />\\x0D\\x0APetroleum.Toolbox.2008(V10.0.0) \\x0D<br />\\x0D\\x0Apetrolog.v10.53 \\x0D<br />\\x0D\\x0APETROSIM/PETRO.SIM.v3.3.SP3 \\x0D<br />\\x0D\\x0APetrosite.v5.5 \\x0D<br />\\x0D\\x0APetrosys.v16.8 \\x0D<br />\\x0D\\x0APFC2D.v3.10.234 \\x0D<br />\\x0D\\x0APFC3D.v3.0.196 \\x0D<br />\\x0D\\x0APFCAD.2004 \\x0D<br />\\x0D\\x0APFCAD.v2.0 \\x0D<br />\\x0D\\x0AP-Frame.10 \\x0D<br />\\x0D\\x0APFWIN.GR.v1.1.for.Windows \\x0D<br />\\x0D\\x0APGI.Server.Complete.v7.16 \\x0D<br />\\x0D\\x0APGI.Server.v6.0.8 \\x0D<br />\\x0D\\x0APGI.Visual.Fortran.2010.v12.10 \\x0D<br />\\x0D\\x0APGI.Workstation.Complete.v13.8.XP.2003.2008 \\x0D<br />\\x0D\\x0APGI.Workstation.Server.v7.0.7 \\x0D<br />\\x0D\\x0APGI.Workstation.v6.1.6.x64 \\x0D<br />\\x0D\\x0APG-STEAMER.RTP.v4.1 \\x0D<br />\\x0D\\x0APhase.Capture.One.v7.1 \\x0D<br />\\x0D\\x0APhase2.v7.010 \\x0D<br />\\x0D\\x0APHAST.and.Risk.(Safeti).v6.54.Win \\x0D<br />\\x0D\\x0APHDWin.2.75 \\x0D<br />\\x0D\\x0APHOENICS.v2011 \\x0D<br />\\x0D\\x0APhotocap.v5.01 \\x0D<br />\\x0D\\x0APhotoFamily.v3.0 \\x0D<br />\\x0D\\x0APhotomatix.Pro.v4.2.5 \\x0D<br />\\x0D\\x0APhotometrix.Australis.v7.13 \\x0D<br />\\x0D\\x0APhotoModeler.Scanner.v2013 \\x0D<br />\\x0D\\x0APhotoModeler.v6.2.2.596 \\x0D<br />\\x0D\\x0APhoton.Engineering.FRED.v10.100.0.Win \\x0D<br />\\x0D\\x0APhotopia.v3.1.4 \\x0D<br />\\x0D\\x0APhotoPRINT.SERVER-PRO.v6.1.v2 \\x0D<br />\\x0D\\x0APhotoshop.Fine.Arts.Effects.Cookbook \\x0D<br />\\x0D\\x0APhotoZoom.Pro.v4.1.4 \\x0D<br />\\x0D\\x0APhotron.Primatte.v1.1.0.for.Fusion.v5.2 \\x0D<br />\\x0D\\x0APHPMaker.v5.0.0.0 \\x0D<br />\\x0D\\x0APHX.ModelCenter.v9.0 \\x0D<br />\\x0D\\x0APhysprops.v1.6.1 \\x0D<br />\\x0D\\x0APiCAD.2008 \\x0D<br />\\x0D\\x0APicaSoft.MayKa.Suite.v6.0 \\x0D<br />\\x0D\\x0APicasoft.Stenza.v1.1.47.Incl.Keymaker \\x0D<br />\\x0D\\x0APicBasic.Plus.v1.10 \\x0D<br />\\x0D\\x0APicBasic.Pro.v2.46 \\x0D<br />\\x0D\\x0APicget.Photoshine.v3.2 \\x0D<br />\\x0D\\x0APicture.Converter.v1.01.for.SolidWorks.2000-01 \\x0D<br />\\x0D\\x0APile.Group.Analysis.v2.2 \\x0D<br />\\x0D\\x0APiletest.PileWave.v5.1 \\x0D<br />\\x0D\\x0APilot3d.v1.222 \\x0D<br />\\x0D\\x0APilotLogic.GaiaCAD.v2.000 \\x0D<br />\\x0D\\x0APinguin.Audio.Meter.v2.2 \\x0D<br />\\x0D\\x0APinnacle.Commotion.Pro.v.4.1 \\x0D<br />\\x0D\\x0APINNACLE.EDITION.DV.V4.5 \\x0D<br />\\x0D\\x0APinnacle.FracproPT.v2011.v10.5.21.Win \\x0D<br />\\x0D\\x0APinnacle.Liquid.Edition.v6.1 \\x0D<br />\\x0D\\x0APinnacle.StimPT.v2007.v10.4.73.Win \\x0D<br />\\x0D\\x0APinnacle.Studio.Ultimate.v17.1 \\x0D<br />\\x0D\\x0APinned.Base.Plate.Design.v1.1.0 \\x0D<br />\\x0D\\x0APioneer.Hill.Software.SpectraPLUS.v5.0 \\x0D<br />\\x0D\\x0APipe.Flow.3D.v1.042 \\x0D<br />\\x0D\\x0APipe.Flow.Expert.2013.v6.39.1.1 \\x0D<br />\\x0D\\x0APipe.Flow.Wizard.v1.07 \\x0D<br />\\x0D\\x0APipecad.PIPEsketch.v1.2.0.for.MicroStation \\x0D<br />\\x0D\\x0Apipedata.pro.v8.5.1 \\x0D<br />\\x0D\\x0APipedrop.v1.2.6 \\x0D<br />\\x0D\\x0APIPE-Flo.Pro.v2009 \\x0D<br />\\x0D\\x0APipeFlow.3D.v1.402 \\x0D<br />\\x0D\\x0APipeFlow.Advisor.1.11 \\x0D<br />\\x0D\\x0APipeFlow.Expert.2013.v6.39.1.1 \\x0D<br />\\x0D\\x0APipeFlow.Wizard.v1.07 \\x0D<br />\\x0D\\x0APipeline.Studio.2013.v3.5 \\x0D<br />\\x0D\\x0APipeline.Toolbox.2012.v14.0.Enterprise \\x0D<br />\\x0D\\x0APipenet.v1.60 \\x0D<br />\\x0D\\x0APIPESIM.v2011.1.1 \\x0D<br />\\x0D\\x0APipeSupport.pro.v3.1.5.5 \\x0D<br />\\x0D\\x0APipeworks.v3.0 \\x0D<br />\\x0D\\x0APiping.Systems.FluidFlow.v3.23 \\x0D<br />\\x0D\\x0APiranesi.v2010.v6.0 \\x0D<br />\\x0D\\x0APISCATUS.3D.V5.0 \\x0D<br />\\x0D\\x0APiste.v5.05 \\x0D<br />\\x0D\\x0APitney.Bowes.Encom.PA.2012 \\x0D<br />\\x0D\\x0APitney.Bowes.MapInfo.Professional.v12.0.2.208 \\x0D<br />\\x0D\\x0APIVR.Vred.v601.Win32.Win64 \\x0D<br />\\x0D\\x0APIXAR.RENDERMAN.STUDIO.V1.0.1.RENDERMAN.PRO.SERVER.V13.5.2 \\x0D<br />\\x0D\\x0APixelplan.Flow.Architect.Studio.3D.v1.7.4 \\x0D<br />\\x0D\\x0APixologic.Zbrush.v4R5.Win32 \\x0D<br />\\x0D\\x0APixoneer.PG-STEAMER.RTP.v4.1sp1 \\x0D<br />\\x0D\\x0APixtra.PanoStitcher.v1.8 \\x0D<br />\\x0D\\x0APL7.Pro.v4.4 \\x0D<br />\\x0D\\x0APlane.Failure.Analysis.v2.1 \\x0D<br />\\x0D\\x0APlanetPress.Suite.6.iso \\x0D<br />\\x0D\\x0APlanetside.Software.Terragen.v0.9.43.WinALL \\x0D<br />\\x0D\\x0APLANIT.ALPHACAM.V2013.R1.with.SP2 \\x0D<br />\\x0D\\x0APLANIT.CABINET.VISION.SOLID.v2012.R2 \\x0D<br />\\x0D\\x0APLANIT.EDGECAM.V2014.R1 \\x0D<br />\\x0D\\x0APlanit.Millenium.II.PRO \\x0D<br />\\x0D\\x0APlanit.S2M.2012.R2 \\x0D<br />\\x0D\\x0APLANIT.SOLID.V4.1 \\x0D<br />\\x0D\\x0APlanSwift.Professional.9.0.17.8 \\x0D<br />\\x0D\\x0APLANT-4D.v7.7.03 \\x0D<br />\\x0D\\x0APlanTracer.Pro.v3.0.79 \\x0D<br />\\x0D\\x0APlantWAVE.PDMS.v3.99 \\x0D<br />\\x0D\\x0APLASSOTECH.3G.AUTHOR.2005.R1 \\x0D<br />\\x0D\\x0APlastics.2012.SP4.0.for.SolidWorks.2012.Win32.64 \\x0D<br />\\x0D\\x0APlate.N.Sheet.Professional.v4.10.02.e \\x0D<br />\\x0D\\x0APlaxis.2D.V9.02.6120 \\x0D<br />\\x0D\\x0APlaxis.Professional.v8.5 \\x0D<br />\\x0D\\x0APlaxis.v3D.Foundation.v1.6 \\x0D<br />\\x0D\\x0APlCAD.v2.75 \\x0D<br />\\x0D\\x0APLC-cx.programmer.v6.0 \\x0D<br />\\x0D\\x0APlexim.PLECS.Standalone.&.Blockset.v3.5.2.Win32.64 \\x0D<br />\\x0D\\x0APlexim.Plecs.Standalone.v3.3.5 \\x0D<br />\\x0D\\x0APlexim.Plecs.V3.5.2 \\x0D<br />\\x0D\\x0APlexscape.Plexearth.2.4.and.2.5 \\x0D<br />\\x0D\\x0APLS.CADD.v9.20 \\x0D<br />\\x0D\\x0APM.FASTrack.PMP.v8.0.0.2 \\x0D<br />\\x0D\\x0APMA.Software.BlueControl.v2.8.SR3.Multilingual \\x0D<br />\\x0D\\x0APMS.v4.0 \\x0D<br />\\x0D\\x0APointcab.v3.1.Win64 \\x0D<br />\\x0D\\x0APointools.POD.Creator.v1.1.Win64 \\x0D<br />\\x0D\\x0APointools.Suite.x64.(PT.Edit.Pro.1.5.&.PT.View.Pro.1.8) \\x0D<br />\\x0D\\x0APointools.View.Pro.v1.8.Win64 \\x0D<br />\\x0D\\x0APointwise.Gridgen.v15.15 \\x0D<br />\\x0D\\x0APointwise.v17.1.R3.winx86x64 \\x0D<br />\\x0D\\x0APolar.Bowler.v1.0 \\x0D<br />\\x0D\\x0APolar.CGen.2013.v13.02.Win \\x0D<br />\\x0D\\x0APolar.Instruments.CGen.2013.v13.02.Win \\x0D<br />\\x0D\\x0APOLAR.INSTRUMENTS.SB200.V2.100 \\x0D<br />\\x0D\\x0APolar.Instruments.Si8000m.2013.v13.02.Win \\x0D<br />\\x0D\\x0APolar.Instruments.Si9000e.2013.v13.02.Win \\x0D<br />\\x0D\\x0APolar.Instruments.Speedstack.2013.v13.02.Win \\x0D<br />\\x0D\\x0APolar.SB200a.Professional.v6.0 \\x0D<br />\\x0D\\x0APOLAR.SB200A.STACKUP.VIEWER.V2.1 \\x0D<br />\\x0D\\x0APolar.Si8000.2013.V13.02 \\x0D<br />\\x0D\\x0APOLAR.SI8000M.V3.10 \\x0D<br />\\x0D\\x0APolar.SI9000.2012.v12.5 \\x0D<br />\\x0D\\x0APolar.SI9000E.Field.Solver.v6.00 \\x0D<br />\\x0D\\x0APolar.Speedstack.2013.v13.03 \\x0D<br />\\x0D\\x0APolyCAD.10.Win \\x0D<br />\\x0D\\x0APolymath.Pro.v6.0 \\x0D<br />\\x0D\\x0APolyWorks.v10 \\x0D<br />\\x0D\\x0APolyworx.RTM-Worx.v2.6 \\x0D<br />\\x0D\\x0APort.Flow.Analyzer.v3.0.E061 \\x0D<br />\\x0D\\x0APortable.Arguslab.v4.0.1 \\x0D<br />\\x0D\\x0APortable.CalcMaster.6.1.0.7z \\x0D<br />\\x0D\\x0APortable.ChemSketch.v11.2 \\x0D<br />\\x0D\\x0APortable.GSView.v4.9 \\x0D<br />\\x0D\\x0APortable.MestReC.v4.9.9.9 \\x0D<br />\\x0D\\x0APORTABLE.Plate.n.Sheet.Version.4.05 \\x0D<br />\\x0D\\x0APortable.RISAFoundation.2.1.0 \\x0D<br />\\x0D\\x0APortable.Tinker.v4.2 \\x0D<br />\\x0D\\x0APortable.Working.Model.2D.v8.0.1.0 \\x0D<br />\\x0D\\x0APortunus.v5.2 \\x0D<br />\\x0D\\x0APoser.Pro.v2012 \\x0D<br />\\x0D\\x0APoster.v8.4 \\x0D<br />\\x0D\\x0APower.4-5-6 \\x0D<br />\\x0D\\x0APower.Data.Recovery.v4.1.2 \\x0D<br />\\x0D\\x0APower.Line.Systems.CADD,POLE,SAPS,TOWER.v9.20.portable \\x0D<br />\\x0D\\x0APower.v4.5.6.R7 \\x0D<br />\\x0D\\x0APower.World.Simulator.v8.0 \\x0D<br />\\x0D\\x0APowerCAD.Architect.V5.2 \\x0D<br />\\x0D\\x0APowerCAD.CE.Pro.v5.1.Arm.Ppc \\x0D<br />\\x0D\\x0APOWERCAD.PRO.V7 \\x0D<br />\\x0D\\x0APowerCAD.SiteMaster.Elevation.v3 \\x0D<br />\\x0D\\x0APowerCAD.SiteMaster.Office.XP.v3 \\x0D<br />\\x0D\\x0APowerCAD.SiteMaster.XP.v5 \\x0D<br />\\x0D\\x0APOWERCONNECT.2008.v5.0 \\x0D<br />\\x0D\\x0APowerDirector.v11.0 \\x0D<br />\\x0D\\x0APowerFlow.v3.3p3a.for.Linux \\x0D<br />\\x0D\\x0APowerFrame.v4.8.Multilanguage \\x0D<br />\\x0D\\x0APowerINSPECT.v2013.SP2 \\x0D<br />\\x0D\\x0APowerlog.v3.31 \\x0D<br />\\x0D\\x0APowerLogic.v1.1 \\x0D<br />\\x0D\\x0APowerMill.2012.SP4.Build.13.0.06.Win32.64 \\x0D<br />\\x0D\\x0APowerMILL2Vericut.2011.SP2.Full \\x0D<br />\\x0D\\x0APowerPCB.with.BlazeRouter.5.0.1 \\x0D<br />\\x0D\\x0APowerPlate.Master.v3.9.Multilanguage \\x0D<br />\\x0D\\x0APowerRail.Track.V8i.08.11.07.615.Cracked \\x0D<br />\\x0D\\x0APowerSHAPE.v2013.x32x64 \\x0D<br />\\x0D\\x0APowerShape.v5.2.34 \\x0D<br />\\x0D\\x0APowerShape/PS-Catalogues.v2014.R2.Win32.64 \\x0D<br />\\x0D\\x0APowersim.Studio.2005.v6.00.3372.6 \\x0D<br />\\x0D\\x0APowerSolids.For.Rhino.v4.0 \\x0D<br />\\x0D\\x0APowerZip.v7.06.3895.WinALL.Cracked-BM \\x0D<br />\\x0D\\x0APPTminimizer.v4.0 \\x0D<br />\\x0D\\x0APRECIENCE.PCB.NAVIGATOR.V5 \\x0D<br />\\x0D\\x0APredator.CNC.Editor.v5.2 \\x0D<br />\\x0D\\x0APredator.VCNC.v7.0 \\x0D<br />\\x0D\\x0APREDATOR.VIRTUAL.CNC.V4.1 \\x0D<br />\\x0D\\x0APre-Design.v1.0 \\x0D<br />\\x0D\\x0APREeSTO.V8.6.1 \\x0D<br />\\x0D\\x0APremier.System.X4.785 \\x0D<br />\\x0D\\x0APremiumSoft.Navicat.Premium.v11.0.9 \\x0D<br />\\x0D\\x0APreps6.Kodak.Preps6.2 \\x0D<br />\\x0D\\x0APrerequisites.for.Bentley.Desktop.Applications.v08.11.07.04 \\x0D<br />\\x0D\\x0APressCAD.Pro.v2010 \\x0D<br />\\x0D\\x0APresto.PageManager.v8.0 \\x0D<br />\\x0D\\x0APresto.PrintMagic.v7 \\x0D<br />\\x0D\\x0APRG.FE-107.1.1 \\x0D<br />\\x0D\\x0APRG.NozzlePRO.7.0 \\x0D<br />\\x0D\\x0APRG.PAULIN.v2011 \\x0D<br />\\x0D\\x0APRGSOFT.FEPIPE.4.5 \\x0D<br />\\x0D\\x0APrimavera.P6.v6.2 \\x0D<br />\\x0D\\x0APrimCAM.V3.0.12 \\x0D<br />\\x0D\\x0APrimeTime.Suite.2013.Linux \\x0D<br />\\x0D\\x0APrimeTime.2013.06.SP1.Linux32&64 \\x0D<br />\\x0D\\x0APrinect.color.toolbox.v2011 \\x0D<br />\\x0D\\x0APrinect.Signa.Station.4.5 \\x0D<br />\\x0D\\x0APrint.Manager.Plus.v2010 \\x0D<br />\\x0D\\x0APrint2CAD.2009.v1.0.0.1 \\x0D<br />\\x0D\\x0APRO/INTRALINK.V8.0 \\x0D<br />\\x0D\\x0APRO600.2014.for.Bentley.Map.Enterprise.V8i.Win32 \\x0D<br />\\x0D\\x0APRO600.2014.for.Bentley.Map.V8i.Win32 \\x0D<br />\\x0D\\x0APRO600.2014.for.MicroStation.V8i.Win32 \\x0D<br />\\x0D\\x0AProach.v1.05 \\x0D<br />\\x0D\\x0AProArt.&.ProLace.v2.0 \\x0D<br />\\x0D\\x0APROCAD.2D.DESIGNER.v2010.0 \\x0D<br />\\x0D\\x0AProCAD.3DSmart.Create.v1.2 \\x0D<br />\\x0D\\x0APROCAD.3DSMART.V2011 \\x0D<br />\\x0D\\x0AProCAD.3DSMART.v2014.32&64bit \\x0D<br />\\x0D\\x0APROCAM.2003 \\x0D<br />\\x0D\\x0APROCAM.DIMENSIONS.V.5.1.0.18 \\x0D<br />\\x0D\\x0AProCAM.II.2006 \\x0D<br />\\x0D\\x0AProcam2009 \\x0D<br />\\x0D\\x0AProCAST.2013.0.Win32 \\x0D<br />\\x0D\\x0AProcedural.Cityengine.2010.3.SR2 \\x0D<br />\\x0D\\x0AProcess.AID.Wizard.for.UG.NX.2.0 \\x0D<br />\\x0D\\x0AProcess.IVE.DIE.Wizard.for.UG.NX.v2.0 \\x0D<br />\\x0D\\x0AProcess.Systems.Enterprise.gPROMS.v3.71 \\x0D<br />\\x0D\\x0AProcessing.Modflow.v8.035 \\x0D<br />\\x0D\\x0AProcessModel.v5.0.WiN32 \\x0D<br />\\x0D\\x0APROCLARITY.ANALYTIC.PLATFORM.V4.0 \\x0D<br />\\x0D\\x0AProcon.v2.5.11.SP1 \\x0D<br />\\x0D\\x0AProDelphi.Professional.v17.5 \\x0D<br />\\x0D\\x0AProDrill.V3.MR2.Mastercam.X4.Mu1.Win32 \\x0D<br />\\x0D\\x0AProe5.0.M060 \\x0D<br />\\x0D\\x0AProektsoft.Design.Expert.v2.4 \\x0D<br />\\x0D\\x0AProektsoft.PSCAD.v1.1 \\x0D<br />\\x0D\\x0APro-EMFATIC.(P-EF).v3.1.Build.1.Win32.64 \\x0D<br />\\x0D\\x0AProFab.Elite.With.Laser.v3.7 \\x0D<br />\\x0D\\x0Aproface.GP-Pro.PB.v7.25 \\x0D<br />\\x0D\\x0AProfiCAD.v7.6.Multilingual \\x0D<br />\\x0D\\x0AProficy.Machine.Edition.V8.0 \\x0D<br />\\x0D\\x0AProfil.Tec.6.0.7.0 \\x0D<br />\\x0D\\x0APROFILE.MASTER.2000.CAM-DUCT.v2.26 \\x0D<br />\\x0D\\x0AProfileMaker.v5.0.10 \\x0D<br />\\x0D\\x0AProfili.Pro.v2.30a \\x0D<br />\\x0D\\x0AProFirst.Group.LogiTRACE.v14.2.2 \\x0D<br />\\x0D\\x0AProflt.v10.4 \\x0D<br />\\x0D\\x0AProFound.Effects.Gak.Pak.v2.0.for.After.Effects \\x0D<br />\\x0D\\x0AProgeARC.2006.for.ProgeCAD \\x0D<br />\\x0D\\x0AProgeCAD.2014.Professional.v14.0.4.3 \\x0D<br />\\x0D\\x0AProgeMEC.v2006.For.ProgeCAD \\x0D<br />\\x0D\\x0AProgeSOFT.IntelliCAD.Pro.2006.v6.0.13a \\x0D<br />\\x0D\\x0AProgman.Oy.MagiCAD.v2011.11.X64.for.autocad2008-2012 \\x0D<br />\\x0D\\x0AProgress.OpenEdge.v10.2A \\x0D<br />\\x0D\\x0AProgress.Sonic.ESB.v8.0 \\x0D<br />\\x0D\\x0AProgressive.Die.Extension.v5.0 \\x0D<br />\\x0D\\x0AProgressive.Die.Wizard.for.UG.NX.V3 \\x0D<br />\\x0D\\x0APROII.v8.2.1 \\x0D<br />\\x0D\\x0AProINTRALINK.v3.4.M062 \\x0D<br />\\x0D\\x0AProject.Engine.Server.And.Client.Enterprise.Edition.v2007.7 \\x0D<br />\\x0D\\x0AProject.Messiah.Studio.Pro.v6.0.Win32.64 \\x0D<br />\\x0D\\x0AProject.Studio.CS.R5.1.008 \\x0D<br />\\x0D\\x0AProjectWise.Navigator.v.8i.08.11.07.171 \\x0D<br />\\x0D\\x0AProkon.CalcPad.v2.1.09 \\x0D<br />\\x0D\\x0APROKON.Structural.Analysis.and.Design.v2.6.0.6 \\x0D<br />\\x0D\\x0AProkon.v2.6.20 \\x0D<br />\\x0D\\x0APro-Lambda.P-EF.v3.1.for.femap \\x0D<br />\\x0D\\x0APro-Lambda.Pro-EMFATIC.P.EF.v3.1.Win32.64 \\x0D<br />\\x0D\\x0APromax.2003 \\x0D<br />\\x0D\\x0Apromise.series.5.v08.11.10.66.x86x64 \\x0D<br />\\x0D\\x0APromodel.v4.22.Full \\x0D<br />\\x0D\\x0Apronest.v8 \\x0D<br />\\x0D\\x0APronosco.X-posure.2.1.3 \\x0D<br />\\x0D\\x0Apropcad.2011.Navcad.2009.Propexpert.2010 \\x0D<br />\\x0D\\x0APropertyLinks.2012.0.0.3.for.Solidworks.2012 \\x0D<br />\\x0D\\x0APropExpert.2005.Full.Version \\x0D<br />\\x0D\\x0AProPlan.v3.6 \\x0D<br />\\x0D\\x0AProSafe-RS.R2.03 \\x0D<br />\\x0D\\x0AProScan.v5.1 \\x0D<br />\\x0D\\x0AProSim.Plus.v1.9.20.0 \\x0D<br />\\x0D\\x0AProsoft.Flow.Pro.v2.1 \\x0D<br />\\x0D\\x0AProSteel.3D.R18.0 \\x0D<br />\\x0D\\x0AProtel.Altium.DXP.Suite.v7.2.85.SP2 \\x0D<br />\\x0D\\x0APROTEUS.6.7.SP3.Full \\x0D<br />\\x0D\\x0AProteus.Design.Suite.v8.1.SP1.build.17358 \\x0D<br />\\x0D\\x0AProteus.Engineering.FastShip.v6.1.29 \\x0D<br />\\x0D\\x0AProteus.Engineering.Maestro.v9.1.0 \\x0D<br />\\x0D\\x0AProteus.Engineering.RhinoMarine.v4.0.3 \\x0D<br />\\x0D\\x0AProteus.Professional.v8.1.SP1 \\x0D<br />\\x0D\\x0AProteus.VSM.7.4.Professional \\x0D<br />\\x0D\\x0APROTEUS7.4sp3 \\x0D<br />\\x0D\\x0AProton.Development.Suite.v3.5.2.7 \\x0D<br />\\x0D\\x0APS.FluidFlow.v3.22.5 \\x0D<br />\\x0D\\x0APS2000.R5.0 \\x0D<br />\\x0D\\x0APSASP.V7.0 \\x0D<br />\\x0D\\x0APsat.v5.1 \\x0D<br />\\x0D\\x0APSC.Design.Kit.3.3.Linux \\x0D<br />\\x0D\\x0APSCAD.v4.2.1 \\x0D<br />\\x0D\\x0APSCAD.v4.5.0 \\x0D<br />\\x0D\\x0APSCAD/EMTDC.V3.0.8 \\x0D<br />\\x0D\\x0APSE.gPROMS.3.1.5.Func \\x0D<br />\\x0D\\x0Apsim.9.2.1 \\x0D<br />\\x0D\\x0APSoC.Designer.Incl.C.Compiler.v4.0 \\x0D<br />\\x0D\\x0APspice.v9.2 \\x0D<br />\\x0D\\x0APSPNT4.01 \\x0D<br />\\x0D\\x0APSS.E.v33.40 \\x0D<br />\\x0D\\x0APSS.Viper.v3.0.4.0 \\x0D<br />\\x0D\\x0APSS/E.v32.03 \\x0D<br />\\x0D\\x0APsychroCalc.v1.0.5 \\x0D<br />\\x0D\\x0APTC.3DPaint.2001 \\x0D<br />\\x0D\\x0APTC.Arbortext.Editor.and.Architect.v5.3 \\x0D<br />\\x0D\\x0APTC.Arbortext.IsoDraw.CADprocess.v7.3.M020 \\x0D<br />\\x0D\\x0APTC.Arbortext.IsoDRAW.V7.2F000 \\x0D<br />\\x0D\\x0APTC.AutoMATION.GATEWAY.V2.01.FOR.PRO/ENGINEER.2000i2 \\x0D<br />\\x0D\\x0APTC.B&W.Expert.Profiles.2.1.for.ProE \\x0D<br />\\x0D\\x0APTC.Basic.Library.for.WildFire \\x0D<br />\\x0D\\x0APTC.Cadds.5i.R12 \\x0D<br />\\x0D\\x0APTC.Cocreate.2010.v17 \\x0D<br />\\x0D\\x0APTC.Connector.Library.for.WildFire \\x0D<br />\\x0D\\x0APTC.Cre.Expert.Moldbase.Extension.(EMX).8.0.M010.Win32.64 \\x0D<br />\\x0D\\x0APTC.CREO.3.0.B000.Win32.64 \\x0D<br />\\x0D\\x0APTC.Creo.Elements.Direct.Drafting.v18.0 \\x0D<br />\\x0D\\x0APTC.Creo.Elements.Direct.Modeling.v18.0 \\x0D<br />\\x0D\\x0APTC.CREO.ELEMENTS.DIRECT.v18.1.M030 \\x0D<br />\\x0D\\x0APTC.CREO.ELEMENTS.PRO.V5.0.M080 \\x0D<br />\\x0D\\x0APTC.Creo.Elements.View.(ex.Product.View).v10.F000.build.93.Pro.Multilanguage.Win64 \\x0D<br />\\x0D\\x0APTC.Creo.Elements/Pro.5.0.M220.Working.for.Win32.64 \\x0D<br />\\x0D\\x0APTC.Creo.Illustrate.v2.0.M030 \\x0D<br />\\x0D\\x0APTC.Creo.Parametric.PDX.7.0.M010.Win32.64 \\x0D<br />\\x0D\\x0APTC.Creo.PDX.V8.0.F000 \\x0D<br />\\x0D\\x0APTC.Creo.Schematics.(ex.Routed.Systems.Designer).2.0.M010 \\x0D<br />\\x0D\\x0APTC.Creo/Illustrate.(ex.PTC.IsoDraw).3.0.F000.build.62.Win32.64 \\x0D<br />\\x0D\\x0APTC.Division.Visual.Collaboration.Services.v6.4.8 \\x0D<br />\\x0D\\x0APTC.EMX.v5.0.M040 \\x0D<br />\\x0D\\x0APTC.Expert.Framework.Extension.(EFX).7.0.M010.Win32.64 \\x0D<br />\\x0D\\x0APTC.Expert.Moldbase.Extension(EMX).v5.0.M010.x64 \\x0D<br />\\x0D\\x0APTC.Graphics.Library.for.WildFire \\x0D<br />\\x0D\\x0APTC.ICEM.CFD.V4.31 \\x0D<br />\\x0D\\x0APTC.ICEM.DDN.v5.0 \\x0D<br />\\x0D\\x0APTC.ICEM.Surf.V4.7.3.2CD \\x0D<br />\\x0D\\x0APTC.InterComm.EDAconduit.v2.10.F000 \\x0D<br />\\x0D\\x0APTC.InterComm.Expert.v5.2.F000 \\x0D<br />\\x0D\\x0APTC.INTRALINK.V3.4.M062 \\x0D<br />\\x0D\\x0APTC.Mathcad.Prime.v3.0.F000.Win32.64 \\x0D<br />\\x0D\\x0APTC.MathCAD.v15.M020.English \\x0D<br />\\x0D\\x0APTC.MoldBase.Library.for.WildFire \\x0D<br />\\x0D\\x0APTC.OPTEGRA.V6.0 \\x0D<br />\\x0D\\x0APTC.Pipe.Fitting.Library.for.WildFire \\x0D<br />\\x0D\\x0APTC.Piping.and.Heating.Symbols.Library.for.WildFire \\x0D<br />\\x0D\\x0APTC.Pro.Engineer.Wildfire.Graphics.Library.v3.0 \\x0D<br />\\x0D\\x0APTC.PRO.ENGINEER.WILDFIRE.V5.M060 \\x0D<br />\\x0D\\x0APTC.Pro.ToolMaker.v9.0.M070.Win32.64 \\x0D<br />\\x0D\\x0APTC.Pro/Concept.v4.0.M010 \\x0D<br />\\x0D\\x0APTC.Windchill.R9.1.M050 \\x0D<br />\\x0D\\x0APTGui.Pro.v9.1 \\x0D<br />\\x0D\\x0APTGui.v3.5 \\x0D<br />\\x0D\\x0APTV.VISSIM.v5.30 \\x0D<br />\\x0D\\x0APTV.VISUM.v11.52 \\x0D<br />\\x0D\\x0APubwin.v4.3.07 \\x0D<br />\\x0D\\x0APulse.Tajima.DG.ML.v11.0.5.2633 \\x0D<br />\\x0D\\x0APulsonix.Advanced.Electronics.Design.System.v2.0 \\x0D<br />\\x0D\\x0APULSONIX.DESIGN.SUITE.5.0.Build.3467 \\x0D<br />\\x0D\\x0APulsonix.v8.0 \\x0D<br />\\x0D\\x0APumpBase.2.0c \\x0D<br />\\x0D\\x0APumpcalc.v7.00 \\x0D<br />\\x0D\\x0APUMP-FLO.v10.0 \\x0D<br />\\x0D\\x0APumpLinx.3.0.2+CFTurbo.9.2.3 \\x0D<br />\\x0D\\x0APumpLinx.3.2.1 \\x0D<br />\\x0D\\x0APunch.Home.Design.Studio.v12.0.MAC.OSX \\x0D<br />\\x0D\\x0APunch.Home.Design.Architectural.Series.4000.v8.0 \\x0D<br />\\x0D\\x0APureBasic.v4.00.WinALL \\x0D<br />\\x0D\\x0APV.Desktop.V10.0.2.0 \\x0D<br />\\x0D\\x0APV.Elite.v2013.sp2 \\x0D<br />\\x0D\\x0APVCAD.v3.5 \\x0D<br />\\x0D\\x0APVCS.7.5 \\x0D<br />\\x0D\\x0APVDS.V3.0 \\x0D<br />\\x0D\\x0APVElite.v2013.with.SP2.v3264bit \\x0D<br />\\x0D\\x0APVI.CWPRO.4.0.3 \\x0D<br />\\x0D\\x0APVSOL.Expert.4.09 \\x0D<br />\\x0D\\x0APVSOL.N.v2.5 \\x0D<br />\\x0D\\x0APVSOL.v4.0.9 \\x0D<br />\\x0D\\x0APVS-Studio.v4.72 \\x0D<br />\\x0D\\x0APVSYS.v5.X \\x0D<br />\\x0D\\x0APVsyst.v6 \\x0D<br />\\x0D\\x0APVTflex.2012.v1.6 \\x0D<br />\\x0D\\x0APVTsim.v20.0 \\x0D<br />\\x0D\\x0APX.DEVELOPER.v1.03D \\x0D<br />\\x0D\\x0APyrosim.v2012 \\x0D<br />\\x0D\\x0APythagoras.CAD.GIS.v12.26 \\x0D<br />\\x0D\\x0AQC.Calc.Offline.Geodetic.Calculator.v2.17 \\x0D<br />\\x0D\\x0AQC.Electrical.CAD.QC.Professional.v2013.R1.v13.2.028 \\x0D<br />\\x0D\\x0AQCAD.v29.0.Win9xNT \\x0D<br />\\x0D\\x0AQDESIGNER.V9.0 \\x0D<br />\\x0D\\x0AQfin.v2.1 \\x0D<br />\\x0D\\x0AQfinsoft.Qfin.v3.0.9 \\x0D<br />\\x0D\\x0AQform.2D/3D.v4.3.3.619 \\x0D<br />\\x0D\\x0AQFORM.v4.3.3.619 \\x0D<br />\\x0D\\x0AQmsys.Tolerances.And.Fits.v5.4 \\x0D<br />\\x0D\\x0AQNX.Momentics.Development.Suite.Professional.Edition.v6.3 \\x0D<br />\\x0D\\x0AQNX.Neutrino8.v6.2.1.NC \\x0D<br />\\x0D\\x0AQNX.Realtime.Platform.v6.10 \\x0D<br />\\x0D\\x0Aqpiping3.2.for.2002 \\x0D<br />\\x0D\\x0AQSR.Nvivo.v10 \\x0D<br />\\x0D\\x0AQSR.XSight.2 \\x0D<br />\\x0D\\x0AQuadriSpace.Document3D.Suite.Professional.2009.vSP2.1 \\x0D<br />\\x0D\\x0AQuadstone.Paramics.v6.4.1 \\x0D<br />\\x0D\\x0AQuantumwise.Atomistix.Toolkit.11.8.2.Win \\x0D<br />\\x0D\\x0AQuarkXPress.9.5.1.Multilingual.Portable \\x0D<br />\\x0D\\x0AQuarry.v6.3.for.Surpac \\x0D<br />\\x0D\\x0AQuartus.12.1.x86.x64 \\x0D<br />\\x0D\\x0AQuest.CANARY.v4.3.0 \\x0D<br />\\x0D\\x0AQuest.Central.For.Databases.6.1 \\x0D<br />\\x0D\\x0AQuest.QDesigner.Physical.Architect.Enterprise.v12.0 \\x0D<br />\\x0D\\x0AQuest.Reliability.FEACrack.v3.0.18 \\x0D<br />\\x0D\\x0AQuest3D.Power.Edition.v3.6.6 \\x0D<br />\\x0D\\x0AQuest3D.VR.Edition.v5.0 \\x0D<br />\\x0D\\x0Aquestasim.v10.1d.x32.x64 \\x0D<br />\\x0D\\x0AQuick.Split.v3.30.WinALL \\x0D<br />\\x0D\\x0AQuick.Terrain.Modeler.v8.02.Win32.64.International \\x0D<br />\\x0D\\x0AQuickBooks.Enterprise.Solutions.v13.v2013 \\x0D<br />\\x0D\\x0AQuickBooks.POS.v11.0.Quickbooks.Point.of.Sale.v2013 \\x0D<br />\\x0D\\x0AQuickBooks.Pro.v2013.For.MAC \\x0D<br />\\x0D\\x0AQuickField.4.2 \\x0D<br />\\x0D\\x0AQuickie.CAD.Symbols.v1.0.Designcad \\x0D<br />\\x0D\\x0AQuickSurf.v6.0.110725.AutoCAD2012.x86.x64 \\x0D<br />\\x0D\\x0AQuickTAX.2001 \\x0D<br />\\x0D\\x0AQuickWorks.v2010.v4.1.+.Precision.Synthesis.v2010 \\x0D<br />\\x0D\\x0AQuikLogic.QuickWorks.v9.8.4 \\x0D<br />\\x0D\\x0AQuikSoft.Merlin.v5.35 \\x0D<br />\\x0D\\x0AQuikSoft.QuikBeam.v4.20 \\x0D<br />\\x0D\\x0AQuikSoft.QuikEC3.v1.11 \\x0D<br />\\x0D\\x0AQuikSoft.QuikFrame.v8.42 \\x0D<br />\\x0D\\x0AQuikSoft.QuikJoint.v8.20 \\x0D<br />\\x0D\\x0AQuikSoft.QuikPort.v7.22 \\x0D<br />\\x0D\\x0AQuint.Optishape-TS.v2010.R1 \\x0D<br />\\x0D\\x0A\\x0D<br />\\x0D\\x0A\\x0D<br />\\x0D\\x0A\\x0D<br />\\x0D\\x0A\\x0D<br />\\x0D\\x0AEmail me about your needs. Ctrl + F to search the program you need.\\x0D<br />\\x0D\\x0AIf you need them for test and personal use, please contact us for them: crdlink@hotmail.com\\x0D<br />\\x0D\\x0AFull cracked version, no limit, full function, no termination time.\\x0D<br />\\x0D\\x0AIf you need them for test and personal use, please contact us for them: crdlink@hotmail.com\\x0D<br />\\x0D\\x0AEmail me about your needs. Ctrl + F to search the program you need.\\x0D<br />\\x0D\\x0A\\x0D<br />\\x0D\\x0A\\x0D<br />\\x0D\\x0A\\x0D<br />\\x0D\\x0A","type":"thread","contenttype":"html","id":"1e57992bac00a280e072b11a4c1445b2","links":[]},"interaction":{"received_at":1445664384.2472000,"schema":{"version":3},"type":"board","created_at":"Fri, 23 Oct 2015 14:31:21 +0000","id":"1e57992bac00a280e072b11a4c1445b2","subtype":"thread","title":"29 NAPA 2013 ship design","content":"Email me about your needs. Ctrl + F to search the program you need.\\x0D<br />\\x0D\\x0AIf you need them for test and personal use, please contact us for them: 
[...]
r />\\x0D\\x0APicture.Converter.v1.01.for.SolidWorks.2000-01 \\x0D<br />\\x0D\\x0APile.Group.Analysis.v2.2 \\x0D<br />\\x0D\\x0APiletest.PileWave.v5.1 \\x0D<br />\\x0D\\x0APilot3d.v1.222 \\x0D<br />\\x0D\\x0APilotLogic.GaiaCAD.v2.000 \\x0D<br />\\x0D\\x0APinguin.Audio.Meter.v2.2 \\x0D<br />\\x0D\\x0APinnacle.Commotion.Pro.v.4.1 \\x0D<br />\\x0D\\x0APINNACLE.EDITION.DV.V4.5 \\x0D<br />\\x0D\\x0APinnacle.FracproPT.v2011.v10.5.21.Win \\x0D<br />\\x0D\\x0APinnacle.Liquid.Edition.v6.1 \\x0D<br />\\x0D\\x0APinnacle.StimPT.v2007.v10.4.73.Win \\x0D<br />\\x0D\\x0APinnacle.Studio.Ultimate.v17.1 \\x0D<br />\\x0D\\x0APinned.Base.Plate.Design.v1.1.0 \\x0D<br />\\x0D\\x0APioneer.Hill.Software.SpectraPLUS.v5.0 \\x0D<br />\\x0D\\x0APipe.Flow.3D.v1.042 \\x0D<br />\\x0D\\x0APipe.Flow.Expert.2013.v6.39.1.1 \\x0D<br />\\x0D\\x0APipe.Flow.Wizard.v1.07 \\x0D<br />\\x0D\\x0APipecad.PIPEsketch.v1.2.0.for.MicroStation \\x0D<br />\\x0D\\x0Apipedata.pro.v8.5.1 \\x0D<br />\\x0D\\x0APipedrop.v1.2.6 \\x0D<br />\\x0D\\x0APIPE-Flo.Pro.v2009 \\x0D<br />\\x0D\\x0APipeFlow.3D.v1.402 \\x0D<br />\\x0D\\x0APipeFlow.Advisor.1.11 \\x0D<br />\\x0D\\x0APipeFlow.Expert.2013.v6.39.1.1 \\x0D<br />\\x0D\\x0APipeFlow.Wizard.v1.07 \\x0D<br />\\x0D\\x0APipeline.Studio.2013.v3.5 \\x0D<br />\\x0D\\x0APipeline.Toolbox.2012.v14.0.Enterprise \\x0D<br />\\x0D\\x0APipenet.v1.60 \\x0D<br />\\x0D\\x0APIPESIM.v2011.1.1 \\x0D<br />\\x0D\\x0APipeSupport.pro.v3.1.5.5 \\x0D<br />\\x0D\\x0APipeworks.v3.0 \\x0D<br />\\x0D\\x0APiping.Systems.FluidFlow.v3.23 \\x0D<br />\\x0D\\x0APiranesi.v2010.v6.0 \\x0D<br />\\x0D\\x0APISCATUS.3D.V5.0 \\x0D<br />\\x0D\\x0APiste.v5.05 \\x0D<br />\\x0D\\x0APitney.Bowes.Encom.PA.2012 \\x0D<br />\\x0D\\x0APitney.Bowes.MapInfo.Professional.v12.0.2.208 \\x0D<br />\\x0D\\x0APIVR.Vred.v601.Win32.Win64 \\x0D<br />\\x0D\\x0APIXAR.RENDERMAN.STUDIO.V1.0.1.RENDERMAN.PRO.SERVER.V13.5.2 \\x0D<br />\\x0D\\x0APixelplan.Flow.Architect.Studio.3D.v1.7.4 \\x0D<br />\\x0D\\x0APixologic.Zbrush.v4R5.Win32 \\x0D<br />\\x0D\\x0APixoneer.PG-STEAMER.RTP.v4.1sp1 \\x0D<br />\\x0D\\x0APixtra.PanoStitcher.v1.8 \\x0D<br />\\x0D\\x0APL7.Pro.v4.4 \\x0D<br />\\x0D\\x0APlane.Failure.Analysis.v2.1 \\x0D<br />\\x0D\\x0APlanetPress.Suite.6.iso \\x0D<br />\\x0D\\x0APlanetside.Software.Terragen.v0.9.43.WinALL \\x0D<br />\\x0D\\x0APLANIT.ALPHACAM.V2013.R1.with.SP2 \\x0D<br />\\x0D\\x0APLANIT.CABINET.VISION.SOLID.v2012.R2 \\x0D<br />\\x0D\\x0APLANIT.EDGECAM.V2014.R1 \\x0D<br />\\x0D\\x0APlanit.Millenium.II.PRO \\x0D<br />\\x0D\\x0APlanit.S2M.2012.R2 \\x0D<br />\\x0D\\x0APLANIT.SOLID.V4.1 \\x0D<br />\\x0D\\x0APlanSwift.Professional.9.0.17.8 \\x0D<br />\\x0D\\x0APLANT-4D.v7.7.03 \\x0D<br />\\x0D\\x0APlanTracer.Pro.v3.0.79 \\x0D<br />\\x0D\\x0APlantWAVE.PDMS.v3.99 \\x0D<br />\\x0D\\x0APLASSOTECH.3G.AUTHOR.2005.R1 \\x0D<br />\\x0D\\x0APlastics.2012.SP4.0.for.SolidWorks.2012.Win32.64 \\x0D<br />\\x0D\\x0APlate.N.Sheet.Professional.v4.10.02.e \\x0D<br />\\x0D\\x0APlaxis.2D.V9.02.6120 \\x0D<br />\\x0D\\x0APlaxis.Professional.v8.5 \\x0D<br />\\x0D\\x0APlaxis.v3D.Foundation.v1.6 \\x0D<br />\\x0D\\x0APlCAD.v2.75 \\x0D<br />\\x0D\\x0APLC-cx.programmer.v6.0 \\x0D<br />\\x0D\\x0APlexim.PLECS.Standalone.&.Blockset.v3.5.2.Win32.64 \\x0D<br />\\x0D\\x0APlexim.Plecs.Standalone.v3.3.5 \\x0D<br />\\x0D\\x0APlexim.Plecs.V3.5.2 \\x0D<br />\\x0D\\x0APlexscape.Plexearth.2.4.and.2.5 \\x0D<br />\\x0D\\x0APLS.CADD.v9.20 \\x0D<br />\\x0D\\x0APM.FASTrack.PMP.v8.0.0.2 \\x0D<br />\\x0D\\x0APMA.Software.BlueControl.v2.8.SR3.Multilingual \\x0D<br />\\x0D\\x0APMS.v4.0 \\x0D<br />\\x0D\\x0APointcab.v3.1.Win64 \\x0D<br />\\x0D\\x0APointools.POD.Creator.v1.1.Win64 \\x0D<br />\\x0D\\x0APointools.Suite.x64.(PT.Edit.Pro.1.5.&.PT.View.Pro.1.8) \\x0D<br />\\x0D\\x0APointools.View.Pro.v1.8.Win64 \\x0D<br />\\x0D\\x0APointwise.Gridgen.v15.15 \\x0D<br />\\x0D\\x0APointwise.v17.1.R3.winx86x64 \\x0D<br />\\x0D\\x0APolar.Bowler.v1.0 \\x0D<br />\\x0D\\x0APolar.CGen.2013.v13.02.Win \\x0D<br />\\x0D\\x0APolar.Instruments.CGen.2013.v13.02.Win \\x0D<br />\\x0D\\x0APOLAR.INSTRUMENTS.SB200.V2.100 \\x0D<br />\\x0D\\x0APolar.Instruments.Si8000m.2013.v13.02.Win \\x0D<br />\\x0D\\x0APolar.Instruments.Si9000e.2013.v13.02.Win \\x0D<br />\\x0D\\x0APolar.Instruments.Speedstack.2013.v13.02.Win \\x0D<br />\\x0D\\x0APolar.SB200a.Professional.v6.0 \\x0D<br />\\x0D\\x0APOLAR.SB200A.STACKUP.VIEWER.V2.1 \\x0D<br />\\x0D\\x0APolar.Si8000.2013.V13.02 \\x0D<br />\\x0D\\x0APOLAR.SI8000M.V3.10 \\x0D<br />\\x0D\\x0APolar.SI9000.2012.v12.5 \\x0D<br />\\x0D\\x0APolar.SI9000E.Field.Solver.v6.00 \\x0D<br />\\x0D\\x0APolar.Speedstack.2013.v13.03 \\x0D<br />\\x0D\\x0APolyCAD.10.Win \\x0D<br />\\x0D\\x0APolymath.Pro.v6.0 \\x0D<br />\\x0D\\x0APolyWorks.v10 \\x0D<br />\\x0D\\x0APolyworx.RTM-Worx.v2.6 \\x0D<br />\\x0D\\x0APort.Flow.Analyzer.v3.0.E061 \\x0D<br />\\x0D\\x0APortable.Arguslab.v4.0.1 \\x0D<br />\\x0D\\x0APortable.CalcMaster.6.1.0.7z \\x0D<br />\\x0D\\x0APortable.ChemSketch.v11.2 \\x0D<br />\\x0D\\x0APortable.GSView.v4.9 \\x0D<br />\\x0D\\x0APortable.MestReC.v4.9.9.9 \\x0D<br />\\x0D\\x0APORTABLE.Plate.n.Sheet.Version.4.05 \\x0D<br />\\x0D\\x0APortable.RISAFoundation.2.1.0 \\x0D<br />\\x0D\\x0APortable.Tinker.v4.2 \\x0D<br />\\x0D\\x0APortable.Working.Model.2D.v8.0.1.0 \\x0D<br />\\x0D\\x0APortunus.v5.2 \\x0D<br />\\x0D\\x0APoser.Pro.v2012 \\x0D<br />\\x0D\\x0APoster.v8.4 \\x0D<br />\\x0D\\x0APower.4-5-6 \\x0D<br />\\x0D\\x0APower.Data.Recovery.v4.1.2 \\x0D<br />\\x0D\\x0APower.Line.Systems.CADD,POLE,SAPS,TOWER.v9.20.portable \\x0D<br />\\x0D\\x0APower.v4.5.6.R7 \\x0D<br />\\x0D\\x0APower.World.Simulator.v8.0 \\x0D<br />\\x0D\\x0APowerCAD.Architect.V5.2 \\x0D<br />\\x0D\\x0APowerCAD.CE.Pro.v5.1.Arm.Ppc \\x0D<br />\\x0D\\x0APOWERCAD.PRO.V7 \\x0D<br />\\x0D\\x0APowerCAD.SiteMaster.Elevation.v3 \\x0D<br />\\x0D\\x0APowerCAD.SiteMaster.Office.XP.v3 \\x0D<br />\\x0D\\x0APowerCAD.SiteMaster.XP.v5 \\x0D<br />\\x0D\\x0APOWERCONNECT.2008.v5.0 \\x0D<br />\\x0D\\x0APowerDirector.v11.0 \\x0D<br />\\x0D\\x0APowerFlow.v3.3p3a.for.Linux \\x0D<br />\\x0D\\x0APowerFrame.v4.8.Multilanguage \\x0D<br />\\x0D\\x0APowerINSPECT.v2013.SP2 \\x0D<br />\\x0D\\x0APowerlog.v3.31 \\x0D<br />\\x0D\\x0APowerLogic.v1.1 \\x0D<br />\\x0D\\x0APowerMill.2012.SP4.Build.13.0.06.Win32.64 \\x0D<br />\\x0D\\x0APowerMILL2Vericut.2011.SP2.Full \\x0D<br />\\x0D\\x0APowerPCB.with.BlazeRouter.5.0.1 \\x0D<br />\\x0D\\x0APowerPlate.Master.v3.9.Multilanguage \\x0D<br />\\x0D\\x0APowerRail.Track.V8i.08.11.07.615.Cracked \\x0D<br />\\x0D\\x0APowerSHAPE.v2013.x32x64 \\x0D<br />\\x0D\\x0APowerShape.v5.2.34 \\x0D<br />\\x0D\\x0APowerShape/PS-Catalogues.v2014.R2.Win32.64 \\x0D<br />\\x0D\\x0APowersim.Studio.2005.v6.00.3372.6 \\x0D<br />\\x0D\\x0APowerSolids.For.Rhino.v4.0 \\x0D<br />\\x0D\\x0APowerZip.v7.06.3895.WinALL.Cracked-BM \\x0D<br />\\x0D\\x0APPTminimizer.v4.0 \\x0D<br />\\x0D\\x0APRECIENCE.PCB.NAVIGATOR.V5 \\x0D<br />\\x0D\\x0APredator.CNC.Editor.v5.2 \\x0D<br />\\x0D\\x0APredator.VCNC.v7.0 \\x0D<br />\\x0D\\x0APREDATOR.VIRTUAL.CNC.V4.1 \\x0D<br />\\x0D\\x0APre-Design.v1.0 \\x0D<br />\\x0D\\x0APREeSTO.V8.6.1 \\x0D<br />\\x0D\\x0APremier.System.X4.785 \\x0D<br />\\x0D\\x0APremiumSoft.Navicat.Premium.v11.0.9 \\x0D<br />\\x0D\\x0APreps6.Kodak.Preps6.2 \\x0D<br />\\x0D\\x0APrerequisites.for.Bentley.Desktop.Applications.v08.11.07.04 \\x0D<br />\\x0D\\x0APressCAD.Pro.v2010 \\x0D<br />\\x0D\\x0APresto.PageManager.v8.0 \\x0D<br />\\x0D\\x0APresto.PrintMagic.v7 \\x0D<br />\\x0D\\x0APRG.FE-107.1.1 \\x0D<br />\\x0D\\x0APRG.NozzlePRO.7.0 \\x0D<br />\\x0D\\x0APRG.PAULIN.v2011 \\x0D<br />\\x0D\\x0APRGSOFT.FEPIPE.4.5 \\x0D<br />\\x0D\\x0APrimavera.P6.v6.2 \\x0D<br />\\x0D\\x0APrimCAM.V3.0.12 \\x0D<br />\\x0D\\x0APrimeTime.Suite.2013.Linux \\x0D<br />\\x0D\\x0APrimeTime.2013.06.SP1.Linux32&64 \\x0D<br />\\x0D\\x0APrinect.color.toolbox.v2011 \\x0D<br />\\x0D\\x0APrinect.Signa.Station.4.5 \\x0D<br />\\x0D\\x0APrint.Manager.Plus.v2010 \\x0D<br />\\x0D\\x0APrint2CAD.2009.v1.0.0.1 \\x0D<br />\\x0D\\x0APRO/INTRALINK.V8.0 \\x0D<br />\\x0D\\x0APRO600.2014.for.Bentley.Map.Enterprise.V8i.Win32 \\x0D<br />\\x0D\\x0APRO600.2014.for.Bentley.Map.V8i.Win32 \\x0D<br />\\x0D\\x0APRO600.2014.for.MicroStation.V8i.Win32 \\x0D<br />\\x0D\\x0AProach.v1.05 \\x0D<br />\\x0D\\x0AProArt.&.ProLace.v2.0 \\x0D<br />\\x0D\\x0APROCAD.2D.DESIGNER.v2010.0 \\x0D<br />\\x0D\\x0AProCAD.3DSmart.Create.v1.2 \\x0D<br />\\x0D\\x0APROCAD.3DSMART.V2011 \\x0D<br />\\x0D\\x0AProCAD.3DSMART.v2014.32&64bit \\x0D<br />\\x0D\\x0APROCAM.2003 \\x0D<br />\\x0D\\x0APROCAM.DIMENSIONS.V.5.1.0.18 \\x0D<br />\\x0D\\x0AProCAM.II.2006 \\x0D<br />\\x0D\\x0AProcam2009 \\x0D<br />\\x0D\\x0AProCAST.2013.0.Win32 \\x0D<br />\\x0D\\x0AProcedural.Cityengine.2010.3.SR2 \\x0D<br />\\x0D\\x0AProcess.AID.Wizard.for.UG.NX.2.0 \\x0D<br />\\x0D\\x0AProcess.IVE.DIE.Wizard.for.UG.NX.v2.0 \\x0D<br />\\x0D\\x0AProcess.Systems.Enterprise.gPROMS.v3.71 \\x0D<br />\\x0D\\x0AProcessing.Modflow.v8.035 \\x0D<br />\\x0D\\x0AProcessModel.v5.0.WiN32 \\x0D<br />\\x0D\\x0APROCLARITY.ANALYTIC.PLATFORM.V4.0 \\x0D<br />\\x0D\\x0AProcon.v2.5.11.SP1 \\x0D<br />\\x0D\\x0AProDelphi.Professional.v17.5 \\x0D<br />\\x0D\\x0AProDrill.V3.MR2.Mastercam.X4.Mu1.Win32 \\x0D<br />\\x0D\\x0AProe5.0.M060 \\x0D<br />\\x0D\\x0AProektsoft.Design.Expert.v2.4 \\x0D<br />\\x0D\\x0AProektsoft.PSCAD.v1.1 \\x0D<br />\\x0D\\x0APro-EMFATIC.(P-EF).v3.1.Build.1.Win32.64 \\x0D<br />\\x0D\\x0AProFab.Elite.With.Laser.v3.7 \\x0D<br />\\x0D\\x0Aproface.GP-Pro.PB.v7.25 \\x0D<br />\\x0D\\x0AProfiCAD.v7.6.Multilingual \\x0D<br />\\x0D\\x0AProficy.Machine.Edition.V8.0 \\x0D<br />\\x0D\\x0AProfil.Tec.6.0.7.0 \\x0D<br />\\x0D\\x0APROFILE.MASTER.2000.CAM-DUCT.v2.26 \\x0D<br />\\x0D\\x0AProfileMaker.v5.0.10 \\x0D<br />\\x0D\\x0AProfili.Pro.v2.30a \\x0D<br />\\x0D\\x0AProFirst.Group.LogiTRACE.v14.2.2 \\x0D<br />\\x0D\\x0AProflt.v10.4 \\x0D<br />\\x0D\\x0AProFound.Effects.Gak.Pak.v2.0.for.After.Effects \\x0D<br />\\x0D\\x0AProgeARC.2006.for.ProgeCAD \\x0D<br />\\x0D\\x0AProgeCAD.2014.Professional.v14.0.4.3 \\x0D<br />\\x0D\\x0AProgeMEC.v2006.For.ProgeCAD \\x0D<br />\\x0D\\x0AProgeSOFT.IntelliCAD.Pro.2006.v6.0.13a \\x0D<br />\\x0D\\x0AProgman.Oy.MagiCAD.v2011.11.X64.for.autocad2008-2012 \\x0D<br />\\x0D\\x0AProgress.OpenEdge.v10.2A \\x0D<br />\\x0D\\x0AProgress.Sonic.ESB.v8.0 \\x0D<br />\\x0D\\x0AProgressive.Die.Extension.v5.0 \\x0D<br />\\x0D\\x0AProgressive.Die.Wizard.for.UG.NX.V3 \\x0D<br />\\x0D\\x0APROII.v8.2.1 \\x0D<br />\\x0D\\x0AProINTRALINK.v3.4.M062 \\x0D<br />\\x0D\\x0AProject.Engine.Server.And.Client.Enterprise.Edition.v2007.7 \\x0D<br />\\x0D\\x0AProject.Messiah.Studio.Pro.v6.0.Win32.64 \\x0D<br />\\x0D\\x0AProject.Studio.CS.R5.1.008 \\x0D<br />\\x0D\\x0AProjectWise.Navigator.v.8i.08.11.07.171 \\x0D<br />\\x0D\\x0AProkon.CalcPad.v2.1.09 \\x0D<br />\\x0D\\x0APROKON.Structural.Analysis.and.Design.v2.6.0.6 \\x0D<br />\\x0D\\x0AProkon.v2.6.20 \\x0D<br />\\x0D\\x0APro-Lambda.P-EF.v3.1.for.femap \\x0D<br />\\x0D\\x0APro-Lambda.Pro-EMFATIC.P.EF.v3.1.Win32.64 \\x0D<br />\\x0D\\x0APromax.2003 \\x0D<br />\\x0D\\x0Apromise.series.5.v08.11.10.66.x86x64 \\x0D<br />\\x0D\\x0APromodel.v4.22.Full \\x0D<br />\\x0D\\x0Apronest.v8 \\x0D<br />\\x0D\\x0APronosco.X-posure.2.1.3 \\x0D<br />\\x0D\\x0Apropcad.2011.Navcad.2009.Propexpert.2010 \\x0D<br />\\x0D\\x0APropertyLinks.2012.0.0.3.for.Solidworks.2012 \\x0D<br />\\x0D\\x0APropExpert.2005.Full.Version \\x0D<br />\\x0D\\x0AProPlan.v3.6 \\x0D<br />\\x0D\\x0AProSafe-RS.R2.03 \\x0D<br />\\x0D\\x0AProScan.v5.1 \\x0D<br />\\x0D\\x0AProSim.Plus.v1.9.20.0 \\x0D<br />\\x0D\\x0AProsoft.Flow.Pro.v2.1 \\x0D<br />\\x0D\\x0AProSteel.3D.R18.0 \\x0D<br />\\x0D\\x0AProtel.Altium.DXP.Suite.v7.2.85.SP2 \\x0D<br />\\x0D\\x0APROTEUS.6.7.SP3.Full \\x0D<br />\\x0D\\x0AProteus.Design.Suite.v8.1.SP1.build.17358 \\x0D<br />\\x0D\\x0AProteus.Engineering.FastShip.v6.1.29 \\x0D<br />\\x0D\\x0AProteus.Engineering.Maestro.v9.1.0 \\x0D<br />\\x0D\\x0AProteus.Engineering.RhinoMarine.v4.0.3 \\x0D<br />\\x0D\\x0AProteus.Professional.v8.1.SP1 \\x0D<br />\\x0D\\x0AProteus.VSM.7.4.Professional \\x0D<br />\\x0D\\x0APROTEUS7.4sp3 \\x0D<br />\\x0D\\x0AProton.Development.Suite.v3.5.2.7 \\x0D<br />\\x0D\\x0APS.FluidFlow.v3.22.5 \\x0D<br />\\x0D\\x0APS2000.R5.0 \\x0D<br />\\x0D\\x0APSASP.V7.0 \\x0D<br />\\x0D\\x0APsat.v5.1 \\x0D<br />\\x0D\\x0APSC.Design.Kit.3.3.Linux \\x0D<br />\\x0D\\x0APSCAD.v4.2.1 \\x0D<br />\\x0D\\x0APSCAD.v4.5.0 \\x0D<br />\\x0D\\x0APSCAD/EMTDC.V3.0.8 \\x0D<br />\\x0D\\x0APSE.gPROMS.3.1.5.Func \\x0D<br />\\x0D\\x0Apsim.9.2.1 \\x0D<br />\\x0D\\x0APSoC.Designer.Incl.C.Compiler.v4.0 \\x0D<br />\\x0D\\x0APspice.v9.2 \\x0D<br />\\x0D\\x0APSPNT4.01 \\x0D<br />\\x0D\\x0APSS.E.v33.40 \\x0D<br />\\x0D\\x0APSS.Viper.v3.0.4.0 \\x0D<br />\\x0D\\x0APSS/E.v32.03 \\x0D<br />\\x0D\\x0APsychroCalc.v1.0.5 \\x0D<br />\\x0D\\x0APTC.3DPaint.2001 \\x0D<br />\\x0D\\x0APTC.Arbortext.Editor.and.Architect.v5.3 \\x0D<br />\\x0D\\x0APTC.Arbortext.IsoDraw.CADprocess.v7.3.M020 \\x0D<br />\\x0D\\x0APTC.Arbortext.IsoDRAW.V7.2F000 \\x0D<br />\\x0D\\x0APTC.AutoMATION.GATEWAY.V2.01.FOR.PRO/ENGINEER.2000i2 \\x0D<br />\\x0D\\x0APTC.B&W.Expert.Profiles.2.1.for.ProE \\x0D<br />\\x0D\\x0APTC.Basic.Library.for.WildFire \\x0D<br />\\x0D\\x0APTC.Cadds.5i.R12 \\x0D<br />\\x0D\\x0APTC.Cocreate.2010.v17 \\x0D<br />\\x0D\\x0APTC.Connector.Library.for.WildFire \\x0D<br />\\x0D\\x0APTC.Cre.Expert.Moldbase.Extension.(EMX).8.0.M010.Win32.64 \\x0D<br />\\x0D\\x0APTC.CREO.3.0.B000.Win32.64 \\x0D<br />\\x0D\\x0APTC.Creo.Elements.Direct.Drafting.v18.0 \\x0D<br />\\x0D\\x0APTC.Creo.Elements.Direct.Modeling.v18.0 \\x0D<br />\\x0D\\x0APTC.CREO.ELEMENTS.DIRECT.v18.1.M030 \\x0D<br />\\x0D\\x0APTC.CREO.ELEMENTS.PRO.V5.0.M080 \\x0D<br />\\x0D\\x0APTC.Creo.Elements.View.(ex.Product.View).v10.F000.build.93.Pro.Multilanguage.Win64 \\x0D<br />\\x0D\\x0APTC.Creo.Elements/Pro.5.0.M220.Working.for.Win32.64 \\x0D<br />\\x0D\\x0APTC.Creo.Illustrate.v2.0.M030 \\x0D<br />\\x0D\\x0APTC.Creo.Parametric.PDX.7.0.M010.Win32.64 \\x0D<br />\\x0D\\x0APTC.Creo.PDX.V8.0.F000 \\x0D<br />\\x0D\\x0APTC.Creo.Schematics.(ex.Routed.Systems.Designer).2.0.M010 \\x0D<br />\\x0D\\x0APTC.Creo/Illustrate.(ex.PTC.IsoDraw).3.0.F000.build.62.Win32.64 \\x0D<br />\\x0D\\x0APTC.Division.Visual.Collaboration.Services.v6.4.8 \\x0D<br />\\x0D\\x0APTC.EMX.v5.0.M040 \\x0D<br />\\x0D\\x0APTC.Expert.Framework.Extension.(EFX).7.0.M010.Win32.64 \\x0D<br />\\x0D\\x0APTC.Expert.Moldbase.Extension(EMX).v5.0.M010.x64 \\x0D<br />\\x0D\\x0APTC.Graphics.Library.for.WildFire \\x0D<br />\\x0D\\x0APTC.ICEM.CFD.V4.31 \\x0D<br />\\x0D\\x0APTC.ICEM.DDN.v5.0 \\x0D<br />\\x0D\\x0APTC.ICEM.Surf.V4.7.3.2CD \\x0D<br />\\x0D\\x0APTC.InterComm.EDAconduit.v2.10.F000 \\x0D<br />\\x0D\\x0APTC.InterComm.Expert.v5.2.F000 \\x0D<br />\\x0D\\x0APTC.INTRALINK.V3.4.M062 \\x0D<br />\\x0D\\x0APTC.Mathcad.Prime.v3.0.F000.Win32.64 \\x0D<br />\\x0D\\x0APTC.MathCAD.v15.M020.English \\x0D<br />\\x0D\\x0APTC.MoldBase.Library.for.WildFire \\x0D<br />\\x0D\\x0APTC.OPTEGRA.V6.0 \\x0D<br />\\x0D\\x0APTC.Pipe.Fitting.Library.for.WildFire \\x0D<br />\\x0D\\x0APTC.Piping.and.Heating.Symbols.Library.for.WildFire \\x0D<br />\\x0D\\x0APTC.Pro.Engineer.Wildfire.Graphics.Library.v3.0 \\x0D<br />\\x0D\\x0APTC.PRO.ENGINEER.WILDFIRE.V5.M060 \\x0D<br />\\x0D\\x0APTC.Pro.ToolMaker.v9.0.M070.Win32.64 \\x0D<br />\\x0D\\x0APTC.Pro/Concept.v4.0.M010 \\x0D<br />\\x0D\\x0APTC.Windchill.R9.1.M050 \\x0D<br />\\x0D\\x0APTGui.Pro.v9.1 \\x0D<br />\\x0D\\x0APTGui.v3.5 \\x0D<br />\\x0D\\x0APTV.VISSIM.v5.30 \\x0D<br />\\x0D\\x0APTV.VISUM.v11.52 \\x0D<br />\\x0D\\x0APubwin.v4.3.07 \\x0D<br />\\x0D\\x0APulse.Tajima.DG.ML.v11.0.5.2633 \\x0D<br />\\x0D\\x0APulsonix.Advanced.Electronics.Design.System.v2.0 \\x0D<br />\\x0D\\x0APULSONIX.DESIGN.SUITE.5.0.Build.3467 \\x0D<br />\\x0D\\x0APulsonix.v8.0 \\x0D<br />\\x0D\\x0APumpBase.2.0c \\x0D<br />\\x0D\\x0APumpcalc.v7.00 \\x0D<br />\\x0D\\x0APUMP-FLO.v10.0 \\x0D<br />\\x0D\\x0APumpLinx.3.0.2+CFTurbo.9.2.3 \\x0D<br />\\x0D\\x0APumpLinx.3.2.1 \\x0D<br />\\x0D\\x0APunch.Home.Design.Studio.v12.0.MAC.OSX \\x0D<br />\\x0D\\x0APunch.Home.Design.Architectural.Series.4000.v8.0 \\x0D<br />\\x0D\\x0APureBasic.v4.00.WinALL \\x0D<br />\\x0D\\x0APV.Desktop.V10.0.2.0 \\x0D<br />\\x0D\\x0APV.Elite.v2013.sp2 \\x0D<br />\\x0D\\x0APVCAD.v3.5 \\x0D<br />\\x0D\\x0APVCS.7.5 \\x0D<br />\\x0D\\x0APVDS.V3.0 \\x0D<br />\\x0D\\x0APVElite.v2013.with.SP2.v3264bit \\x0D<br />\\x0D\\x0APVI.CWPRO.4.0.3 \\x0D<br />\\x0D\\x0APVSOL.Expert.4.09 \\x0D<br />\\x0D\\x0APVSOL.N.v2.5 \\x0D<br />\\x0D\\x0APVSOL.v4.0.9 \\x0D<br />\\x0D\\x0APVS-Studio.v4.72 \\x0D<br />\\x0D\\x0APVSYS.v5.X \\x0D<br />\\x0D\\x0APVsyst.v6 \\x0D<br />\\x0D\\x0APVTflex.2012.v1.6 \\x0D<br />\\x0D\\x0APVTsim.v20.0 \\x0D<br />\\x0D\\x0APX.DEVELOPER.v1.03D \\x0D<br />\\x0D\\x0APyrosim.v2012 \\x0D<br />\\x0D\\x0APythagoras.CAD.GIS.v12.26 \\x0D<br />\\x0D\\x0AQC.Calc.Offline.Geodetic.Calculator.v2.17 \\x0D<br />\\x0D\\x0AQC.Electrical.CAD.QC.Professional.v2013.R1.v13.2.028 \\x0D<br />\\x0D\\x0AQCAD.v29.0.Win9xNT \\x0D<br />\\x0D\\x0AQDESIGNER.V9.0 \\x0D<br />\\x0D\\x0AQfin.v2.1 \\x0D<br />\\x0D\\x0AQfinsoft.Qfin.v3.0.9 \\x0D<br />\\x0D\\x0AQform.2D/3D.v4.3.3.619 \\x0D<br />\\x0D\\x0AQFORM.v4.3.3.619 \\x0D<br />\\x0D\\x0AQmsys.Tolerances.And.Fits.v5.4 \\x0D<br />\\x0D\\x0AQNX.Momentics.Development.Suite.Professional.Edition.v6.3 \\x0D<br />\\x0D\\x0AQNX.Neutrino8.v6.2.1.NC \\x0D<br />\\x0D\\x0AQNX.Realtime.Platform.v6.10 \\x0D<br />\\x0D\\x0Aqpiping3.2.for.2002 \\x0D<br />\\x0D\\x0AQSR.Nvivo.v10 \\x0D<br />\\x0D\\x0AQSR.XSight.2 \\x0D<br />\\x0D\\x0AQuadriSpace.Document3D.Suite.Professional.2009.vSP2.1 \\x0D<br />\\x0D\\x0AQuadstone.Paramics.v6.4.1 \\x0D<br />\\x0D\\x0AQuantumwise.Atomistix.Toolkit.11.8.2.Win \\x0D<br />\\x0D\\x0AQuarkXPress.9.5.1.Multilingual.Portable \\x0D<br />\\x0D\\x0AQuarry.v6.3.for.Surpac \\x0D<br />\\x0D\\x0AQuartus.12.1.x86.x64 \\x0D<br />\\x0D\\x0AQuest.CANARY.v4.3.0 \\x0D<br />\\x0D\\x0AQuest.Central.For.Databases.6.1 \\x0D<br />\\x0D\\x0AQuest.QDesigner.Physical.Architect.Enterprise.v12.0 \\x0D<br />\\x0D\\x0AQuest.Reliability.FEACrack.v3.0.18 \\x0D<br />\\x0D\\x0AQuest3D.Power.Edition.v3.6.6 \\x0D<br />\\x0D\\x0AQuest3D.VR.Edition.v5.0 \\x0D<br />\\x0D\\x0Aquestasim.v10.1d.x32.x64 \\x0D<br />\\x0D\\x0AQuick.Split.v3.30.WinALL \\x0D<br />\\x0D\\x0AQuick.Terrain.Modeler.v8.02.Win32.64.International \\x0D<br />\\x0D\\x0AQuickBooks.Enterprise.Solutions.v13.v2013 \\x0D<br />\\x0D\\x0AQuickBooks.POS.v11.0.Quickbooks.Point.of.Sale.v2013 \\x0D<br />\\x0D\\x0AQuickBooks.Pro.v2013.For.MAC \\x0D<br />\\x0D\\x0AQuickField.4.2 \\x0D<br />\\x0D\\x0AQuickie.CAD.Symbols.v1.0.Designcad \\x0D<br />\\x0D\\x0AQuickSurf.v6.0.110725.AutoCAD2012.x86.x64 \\x0D<br />\\x0D\\x0AQuickTAX.2001 \\x0D<br />\\x0D\\x0AQuickWorks.v2010.v4.1.+.Precision.Synthesis.v2010 \\x0D<br />\\x0D\\x0AQuikLogic.QuickWorks.v9.8.4 \\x0D<br />\\x0D\\x0AQuikSoft.Merlin.v5.35 \\x0D<br />\\x0D\\x0AQuikSoft.QuikBeam.v4.20 \\x0D<br />\\x0D\\x0AQuikSoft.QuikEC3.v1.11 \\x0D<br />\\x0D\\x0AQuikSoft.QuikFrame.v8.42 \\x0D<br />\\x0D\\x0AQuikSoft.QuikJoint.v8.20 \\x0D<br />\\x0D\\x0AQuikSoft.QuikPort.v7.22 \\x0D<br />\\x0D\\x0AQuint.Optishape-TS.v2010.R1 \\x0D<br />\\x0D\\x0A\\x0D<br />\\x0D\\x0A\\x0D<br />\\x0D\\x0A\\x0D<br />\\x0D\\x0A\\x0D<br />\\x0D\\x0AEmail me about your needs. Ctrl + F to search the program you need.\\x0D<br />\\x0D\\x0AIf you need them for test and personal use, please contact us for them: crdlink@hotmail.com\\x0D<br />\\x0D\\x0AFull cracked version, no limit, full function, no termination time.\\x0D<br />\\x0D\\x0AIf you need them for test and personal use, please contact us for them: crdlink@hotmail.com\\x0D<br />\\x0D\\x0AEmail me about your needs. Ctrl + F to search the program you need.\\x0D<br />\\x0D\\x0A\\x0D<br />\\x0D\\x0A\\x0D<br />\\x0D\\x0A\\x0D<br />\\x0D\\x0A","author":{"name":"NOLOND","link":"http://eznotes.forumchitchat.com/?profile=2136317","username":"NOLOND"},"link":"http://eznotes.forumchitchat.com/post?id=7768739#post1289649152","contenttype":"html","tags":["tab2"]},"language":{"tag":"en","tag_extended":"en","confidence":88}}